<?xml version="1.0" encoding="UTF-8"?>

<!-- generated on 03/23/21 19:25:59 by Eclipse SUMO netedit Version 1.8.0
<configuration xmlns:xsi="http://www.w3.org/2001/XMLSchema-instance" xsi:noNamespaceSchemaLocation="http://sumo.dlr.de/xsd/netconvertConfiguration.xsd">

    <input>
        <sumo-net-file value="C:\Users\jwj\Desktop\omnetpp-5.6.2-src-windows\omnetpp-5.6.2\workspace\veins\examples\veins\erlangen.net.xml"/>
    </input>

    <output>
        <output-file value="C:\Users\jwj\Desktop\omnetpp-5.6.2-src-windows\omnetpp-5.6.2\workspace\veins\examples\veins\erlangen.net.xml"/>
    </output>

    <processing>
        <geometry.min-radius.fix.railways value="false"/>
        <geometry.max-grade.fix value="false"/>
        <offset.disable-normalization value="true"/>
        <lefthand value="false"/>
    </processing>

    <junctions>
        <no-turnarounds value="true"/>
        <junctions.corner-detail value="0"/>
        <junctions.limit-turn-speed value="-1"/>
        <rectangular-lane-cut value="false"/>
    </junctions>

    <pedestrian>
        <walkingareas value="false"/>
    </pedestrian>

    <report>
        <aggregate-warnings value="5"/>
    </report>

</configuration>
-->

<net version="1.6" xmlns:xsi="http://www.w3.org/2001/XMLSchema-instance" xsi:noNamespaceSchemaLocation="http://sumo.dlr.de/xsd/net_file.xsd">

    <location netOffset="0.00,0.00" convBoundary="644465.09,5491822.64,647064.46,5494795.98" origBoundary="10.998195,49.560791,11.034775,49.587847" projParameter="+proj=utm +zone=32 +ellps=WGS84 +datum=WGS84 +units=m +no_defs"/>

    <edge id=":1096168863_0" function="internal">
        <lane id=":1096168863_0_0" index="0" speed="22.22" length="4.10" shape="644939.89,5493453.49 644936.16,5493455.19"/>
    </edge>
    <edge id=":1096168863_1" function="internal">
        <lane id=":1096168863_1_0" index="0" speed="22.22" length="2.22" shape="644939.89,5493453.49 644938.46,5493453.26 644937.86,5493452.77"/>
    </edge>
    <edge id=":1096168863_4" function="internal">
        <lane id=":1096168863_4_0" index="0" speed="22.22" length="2.46" shape="644937.86,5493452.77 644937.77,5493452.70 644937.80,5493451.80 644938.56,5493450.58"/>
    </edge>
    <edge id=":1096168863_2" function="internal">
        <lane id=":1096168863_2_0" index="0" speed="22.22" length="3.30" shape="644935.65,5493452.15 644938.56,5493450.58"/>
    </edge>
    <edge id=":1096168863_3" function="internal">
        <lane id=":1096168863_3_0" index="0" speed="22.22" length="1.73" shape="644935.65,5493452.15 644936.92,5493452.72 644937.12,5493452.99"/>
    </edge>
    <edge id=":1096168863_5" function="internal">
        <lane id=":1096168863_5_0" index="0" speed="22.22" length="2.78" shape="644937.12,5493452.99 644937.43,5493453.42 644937.18,5493454.24 644936.16,5493455.19"/>
    </edge>
    <edge id=":1154372516_0" function="internal">
        <lane id=":1154372516_0_0" index="0" speed="13.89" length="8.63" shape="646774.50,5493158.72 646773.80,5493156.48 646772.55,5493154.96 646770.75,5493154.15 646768.40,5493154.07"/>
    </edge>
    <edge id=":1154372516_1" function="internal">
        <lane id=":1154372516_1_0" index="0" speed="13.89" length="12.95" shape="646774.50,5493158.72 646774.27,5493155.14 646774.83,5493151.99 646776.19,5493149.28 646778.34,5493147.00"/>
    </edge>
    <edge id=":1154372516_2" function="internal">
        <lane id=":1154372516_2_0" index="0" speed="13.89" length="4.67" shape="646774.50,5493158.72 646775.09,5493157.40 646775.82,5493156.88 646776.67,5493157.14 646777.66,5493158.19"/>
    </edge>
    <edge id=":1154372516_3" function="internal">
        <lane id=":1154372516_3_0" index="0" speed="13.89" length="9.57" shape="646780.35,5493149.49 646778.82,5493151.14 646777.85,5493153.14 646777.47,5493155.49 646777.66,5493158.19"/>
    </edge>
    <edge id=":1154372516_4" function="internal">
        <lane id=":1154372516_4_0" index="0" speed="13.89" length="13.01" shape="646780.35,5493149.49 646777.54,5493151.46 646774.78,5493152.76 646771.82,5493153.58 646768.40,5493154.07"/>
    </edge>
    <edge id=":1154372516_5" function="internal">
        <lane id=":1154372516_5_0" index="0" speed="13.89" length="2.34" shape="646780.35,5493149.49 646778.92,5493149.62 646778.10,5493149.25"/>
    </edge>
    <edge id=":1154372516_9" function="internal">
        <lane id=":1154372516_9_0" index="0" speed="13.89" length="2.34" shape="646778.10,5493149.25 646777.91,5493148.38 646778.34,5493147.00"/>
    </edge>
    <edge id=":1154372516_6" function="internal">
        <lane id=":1154372516_6_0" index="0" speed="13.89" length="11.21" shape="646768.07,5493150.88 646771.23,5493150.50 646773.61,5493149.93 646775.80,5493148.86 646778.34,5493147.00"/>
    </edge>
    <edge id=":1154372516_7" function="internal">
        <lane id=":1154372516_7_0" index="0" speed="13.89" length="5.07" shape="646768.07,5493150.88 646771.76,5493151.02 646773.02,5493151.59"/>
    </edge>
    <edge id=":1154372516_8" function="internal">
        <lane id=":1154372516_8_0" index="0" speed="13.89" length="2.34" shape="646768.07,5493150.88 646769.35,5493151.56 646769.83,5493152.31"/>
    </edge>
    <edge id=":1154372516_10" function="internal">
        <lane id=":1154372516_10_0" index="0" speed="13.89" length="8.49" shape="646773.02,5493151.59 646774.58,5493152.29 646776.55,5493154.68 646777.66,5493158.19"/>
    </edge>
    <edge id=":1154372516_11" function="internal">
        <lane id=":1154372516_11_0" index="0" speed="13.89" length="2.34" shape="646769.83,5493152.31 646769.51,5493153.15 646768.40,5493154.07"/>
    </edge>
    <edge id=":12247702_0" function="internal">
        <lane id=":12247702_0_0" index="0" speed="11.11" length="11.31" shape="644984.17,5493971.77 644983.58,5493968.76 644982.23,5493966.50 644980.10,5493964.98 644977.21,5493964.22"/>
    </edge>
    <edge id=":12247702_1" function="internal">
        <lane id=":12247702_1_0" index="0" speed="13.89" length="16.02" shape="644984.17,5493971.77 644982.98,5493955.80"/>
    </edge>
    <edge id=":12247702_2" function="internal">
        <lane id=":12247702_2_0" index="0" speed="13.89" length="5.94" shape="644984.17,5493971.77 644984.53,5493967.44 644985.35,5493966.07"/>
    </edge>
    <edge id=":12247702_3" function="internal">
        <lane id=":12247702_3_0" index="0" speed="13.89" length="2.34" shape="644984.17,5493971.77 644984.89,5493970.53 644985.67,5493970.08"/>
    </edge>
    <edge id=":12247702_16" function="internal">
        <lane id=":12247702_16_0" index="0" speed="13.89" length="9.31" shape="644985.35,5493966.07 644986.21,5493964.63 644989.23,5493963.33 644993.57,5493963.56"/>
    </edge>
    <edge id=":12247702_17" function="internal">
        <lane id=":12247702_17_0" index="0" speed="13.89" length="2.34" shape="644985.67,5493970.08 644986.49,5493970.43 644987.36,5493971.58"/>
    </edge>
    <edge id=":12247702_4" function="internal">
        <lane id=":12247702_4_0" index="0" speed="13.89" length="9.07" shape="644992.95,5493966.70 644990.37,5493966.56 644988.58,5493967.33 644987.58,5493969.01 644987.36,5493971.58"/>
    </edge>
    <edge id=":12247702_5" function="internal">
        <lane id=":12247702_5_0" index="0" speed="11.11" length="15.94" shape="644992.95,5493966.70 644977.21,5493964.22"/>
    </edge>
    <edge id=":12247702_6" function="internal">
        <lane id=":12247702_6_0" index="0" speed="13.89" length="15.99" shape="644992.95,5493966.70 644988.90,5493965.34 644985.88,5493963.07 644983.91,5493959.89 644982.98,5493955.80"/>
    </edge>
    <edge id=":12247702_7" function="internal">
        <lane id=":12247702_7_0" index="0" speed="13.89" length="4.67" shape="644992.95,5493966.70 644991.93,5493965.68 644991.69,5493964.82 644992.24,5493964.11 644993.57,5493963.56"/>
    </edge>
    <edge id=":12247702_8" function="internal">
        <lane id=":12247702_8_0" index="0" speed="13.89" length="11.83" shape="644986.17,5493955.51 644986.85,5493958.53 644988.32,5493960.88 644990.56,5493962.55 644993.57,5493963.56"/>
    </edge>
    <edge id=":12247702_9" function="internal">
        <lane id=":12247702_9_0" index="0" speed="13.89" length="16.12" shape="644986.17,5493955.51 644987.36,5493971.58"/>
    </edge>
    <edge id=":12247702_10" function="internal">
        <lane id=":12247702_10_0" index="0" speed="11.11" length="6.19" shape="644986.17,5493955.51 644985.94,5493959.76 644985.01,5493961.46"/>
    </edge>
    <edge id=":12247702_11" function="internal">
        <lane id=":12247702_11_0" index="0" speed="13.89" length="2.34" shape="644986.17,5493955.51 644985.48,5493956.78 644984.72,5493957.25"/>
    </edge>
    <edge id=":12247702_18" function="internal">
        <lane id=":12247702_18_0" index="0" speed="11.11" length="8.84" shape="644985.01,5493961.46 644984.37,5493962.62 644981.46,5493964.11 644977.21,5493964.22"/>
    </edge>
    <edge id=":12247702_19" function="internal">
        <lane id=":12247702_19_0" index="0" speed="13.89" length="2.34" shape="644984.72,5493957.25 644983.88,5493956.92 644982.98,5493955.80"/>
    </edge>
    <edge id=":12247702_12" function="internal">
        <lane id=":12247702_12_0" index="0" speed="11.11" length="9.06" shape="644977.58,5493961.05 644980.14,5493960.98 644981.90,5493960.08 644982.84,5493958.35 644982.98,5493955.80"/>
    </edge>
    <edge id=":12247702_13" function="internal">
        <lane id=":12247702_13_0" index="0" speed="11.11" length="16.18" shape="644977.58,5493961.05 644993.57,5493963.56"/>
    </edge>
    <edge id=":12247702_14" function="internal">
        <lane id=":12247702_14_0" index="0" speed="11.11" length="15.83" shape="644977.58,5493961.05 644981.65,5493962.11 644984.63,5493964.22 644986.54,5493967.38 644987.36,5493971.58"/>
    </edge>
    <edge id=":12247702_15" function="internal">
        <lane id=":12247702_15_0" index="0" speed="8.33" length="4.67" shape="644977.58,5493961.05 644978.68,5493961.98 644978.99,5493962.82 644978.50,5493963.57 644977.21,5493964.22"/>
    </edge>
    <edge id=":12247705_0" function="internal">
        <lane id=":12247705_0_0" index="0" speed="13.89" length="4.67" shape="644900.57,5494573.76 644899.55,5494574.78 644898.69,5494575.02 644897.98,5494574.47 644897.43,5494573.14"/>
    </edge>
    <edge id=":12452110_0" function="internal">
        <lane id=":12452110_0_0" index="0" speed="16.67" length="4.67" shape="647065.48,5494796.00 647064.66,5494797.19 647063.86,5494797.58 647063.06,5494797.17 647062.28,5494795.96"/>
    </edge>
    <edge id=":1316826203_0" function="internal">
        <lane id=":1316826203_0_0" index="0" speed="13.89" length="4.67" shape="646859.52,5493240.74 646860.37,5493241.90 646860.47,5493242.79 646859.82,5493243.40 646858.42,5493243.74"/>
    </edge>
    <edge id=":13493753_0" function="internal">
        <lane id=":13493753_0_0" index="0" speed="11.11" length="9.31" shape="644956.06,5493757.24 644955.11,5493754.95 644953.61,5493753.52 644951.55,5493752.94 644948.95,5493753.22"/>
    </edge>
    <edge id=":13493753_1" function="internal">
        <lane id=":13493753_1_0" index="0" speed="13.89" length="14.56" shape="644956.06,5493757.24 644955.13,5493753.68 644954.13,5493750.22 644953.05,5493746.79 644951.85,5493743.30"/>
    </edge>
    <edge id=":13493753_2" function="internal">
        <lane id=":13493753_2_0" index="0" speed="13.89" length="2.34" shape="644956.06,5493757.24 644956.54,5493755.88 644957.22,5493755.30"/>
    </edge>
    <edge id=":13493753_9" function="internal">
        <lane id=":13493753_9_0" index="0" speed="13.89" length="2.34" shape="644957.22,5493755.30 644958.10,5493755.50 644959.16,5493756.47"/>
    </edge>
    <edge id=":13493753_3" function="internal">
        <lane id=":13493753_3_0" index="0" speed="13.89" length="14.88" shape="644954.87,5493742.23 644956.08,5493745.76 644957.19,5493749.30 644958.22,5493752.86 644959.16,5493756.47"/>
    </edge>
    <edge id=":13493753_4" function="internal">
        <lane id=":13493753_4_0" index="0" speed="11.11" length="6.17" shape="644954.87,5493742.23 644955.67,5493746.21 644955.19,5493748.27"/>
    </edge>
    <edge id=":13493753_5" function="internal">
        <lane id=":13493753_5_0" index="0" speed="13.89" length="2.34" shape="644954.87,5493742.23 644954.52,5493743.63 644953.90,5493744.28"/>
    </edge>
    <edge id=":13493753_10" function="internal">
        <lane id=":13493753_10_0" index="0" speed="11.11" length="8.41" shape="644955.19,5493748.27 644954.94,5493749.37 644952.70,5493751.70 644948.95,5493753.22"/>
    </edge>
    <edge id=":13493753_11" function="internal">
        <lane id=":13493753_11_0" index="0" speed="13.89" length="2.34" shape="644953.90,5493744.28 644953.01,5493744.17 644951.85,5493743.30"/>
    </edge>
    <edge id=":13493753_6" function="internal">
        <lane id=":13493753_6_0" index="0" speed="11.11" length="9.04" shape="644948.18,5493750.12 644950.51,5493749.17 644951.90,5493747.72 644952.35,5493745.77 644951.85,5493743.30"/>
    </edge>
    <edge id=":13493753_7" function="internal">
        <lane id=":13493753_7_0" index="0" speed="11.11" length="14.46" shape="644948.18,5493750.12 644952.19,5493749.70 644955.36,5493750.61 644957.68,5493752.87 644959.16,5493756.47"/>
    </edge>
    <edge id=":13493753_8" function="internal">
        <lane id=":13493753_8_0" index="0" speed="8.33" length="4.67" shape="644948.18,5493750.12 644949.54,5493750.61 644950.12,5493751.29 644949.92,5493752.16 644948.95,5493753.22"/>
    </edge>
    <edge id=":1391319738_0" function="internal">
        <lane id=":1391319738_0_0" index="0" speed="15.28" length="9.65" shape="645530.31,5493481.83 645527.92,5493482.37 645526.18,5493483.65 645525.09,5493485.65 645524.65,5493488.38"/>
    </edge>
    <edge id=":1391319738_1" function="internal">
        <lane id=":1391319738_1_0" index="0" speed="16.67" length="14.50" shape="645530.31,5493481.83 645515.88,5493482.95"/>
        <lane id=":1391319738_1_1" index="1" speed="16.67" length="14.50" shape="645530.09,5493478.63 645515.61,5493479.76"/>
    </edge>
    <edge id=":1391319738_3" function="internal">
        <lane id=":1391319738_3_0" index="0" speed="15.28" length="9.05" shape="645521.45,5493488.26 645521.19,5493485.75 645520.17,5493484.02 645518.40,5493483.09 645515.88,5493482.95"/>
    </edge>
    <edge id=":1391319738_4" function="internal">
        <lane id=":1391319738_4_0" index="0" speed="13.89" length="4.67" shape="645521.45,5493488.26 645522.30,5493487.09 645523.11,5493486.72 645523.89,5493487.15 645524.65,5493488.38"/>
    </edge>
    <edge id=":1395333452_0" function="internal">
        <lane id=":1395333452_0_0" index="0" speed="13.89" length="4.67" shape="646073.47,5494465.97 646072.69,5494467.18 646071.90,5494467.60 646071.09,5494467.22 646070.27,5494466.03"/>
    </edge>
    <edge id=":14319137_0" function="internal">
        <lane id=":14319137_0_0" index="0" speed="8.33" length="6.25" shape="644691.67,5493812.53 644691.57,5493810.88 644691.97,5493809.47 644692.85,5493808.29 644694.21,5493807.35"/>
    </edge>
    <edge id=":14319137_1" function="internal">
        <lane id=":14319137_1_0" index="0" speed="8.33" length="2.70" shape="644691.67,5493812.53 644692.23,5493811.20 644692.94,5493810.66 644693.29,5493810.76"/>
    </edge>
    <edge id=":14319137_4" function="internal">
        <lane id=":14319137_4_0" index="0" speed="8.33" length="1.97" shape="644693.29,5493810.76 644693.80,5493810.91 644694.81,5493811.93"/>
    </edge>
    <edge id=":14319137_2" function="internal">
        <lane id=":14319137_2_0" index="0" speed="8.33" length="2.08" shape="644695.66,5493810.21 644695.20,5493810.52 644694.91,5493810.91 644694.78,5493811.38 644694.81,5493811.93"/>
    </edge>
    <edge id=":14319137_3" function="internal">
        <lane id=":14319137_3_0" index="0" speed="8.33" length="2.00" shape="644695.66,5493810.21 644694.23,5493810.04 644693.78,5493809.71"/>
    </edge>
    <edge id=":14319137_5" function="internal">
        <lane id=":14319137_5_0" index="0" speed="8.33" length="2.68" shape="644693.78,5493809.71 644693.51,5493809.51 644693.50,5493808.61 644694.21,5493807.35"/>
    </edge>
    <edge id=":14319161_0" function="internal">
        <lane id=":14319161_0_0" index="0" speed="13.89" length="11.50" shape="644636.24,5493027.84 644634.53,5493025.25 644632.39,5493023.57 644629.82,5493022.80 644626.82,5493022.92"/>
    </edge>
    <edge id=":14319161_1" function="internal">
        <lane id=":14319161_1_0" index="0" speed="13.89" length="15.88" shape="644636.24,5493027.84 644634.58,5493024.32 644632.96,5493020.60 644631.45,5493016.84 644630.12,5493013.19"/>
    </edge>
    <edge id=":14319161_2" function="internal">
        <lane id=":14319161_2_0" index="0" speed="13.89" length="6.33" shape="644636.24,5493027.84 644634.92,5493023.78 644635.19,5493021.73"/>
    </edge>
    <edge id=":14319161_3" function="internal">
        <lane id=":14319161_3_0" index="0" speed="13.89" length="2.34" shape="644636.24,5493027.84 644636.43,5493026.41 644636.97,5493025.69"/>
    </edge>
    <edge id=":14319161_16" function="internal">
        <lane id=":14319161_16_0" index="0" speed="13.89" length="8.74" shape="644635.19,5493021.73 644635.35,5493020.54 644637.55,5493018.11 644641.50,5493016.50"/>
    </edge>
    <edge id=":14319161_17" function="internal">
        <lane id=":14319161_17_0" index="0" speed="13.89" length="2.34" shape="644636.97,5493025.69 644637.86,5493025.70 644639.11,5493026.42"/>
    </edge>
    <edge id=":14319161_4" function="internal">
        <lane id=":14319161_4_0" index="0" speed="13.89" length="9.06" shape="644642.27,5493019.61 644639.90,5493020.58 644638.58,5493022.03 644638.32,5493023.98 644639.11,5493026.42"/>
    </edge>
    <edge id=":14319161_5" function="internal">
        <lane id=":14319161_5_0" index="0" speed="13.89" length="15.80" shape="644642.27,5493019.61 644626.82,5493022.92"/>
    </edge>
    <edge id=":14319161_6" function="internal">
        <lane id=":14319161_6_0" index="0" speed="13.89" length="15.38" shape="644642.27,5493019.61 644638.08,5493020.06 644634.66,5493019.14 644632.00,5493016.85 644630.12,5493013.19"/>
    </edge>
    <edge id=":14319161_7" function="internal">
        <lane id=":14319161_7_0" index="0" speed="13.89" length="4.67" shape="644642.27,5493019.61 644640.91,5493019.12 644640.33,5493018.44 644640.53,5493017.57 644641.50,5493016.50"/>
    </edge>
    <edge id=":14319161_8" function="internal">
        <lane id=":14319161_8_0" index="0" speed="13.89" length="10.54" shape="644633.15,5493012.15 644634.44,5493014.64 644636.26,5493016.20 644638.61,5493016.82 644641.50,5493016.50"/>
    </edge>
    <edge id=":14319161_9" function="internal">
        <lane id=":14319161_9_0" index="0" speed="13.89" length="15.48" shape="644633.15,5493012.15 644634.46,5493015.74 644635.91,5493019.38 644637.47,5493022.96 644639.11,5493026.42"/>
    </edge>
    <edge id=":14319161_10" function="internal">
        <lane id=":14319161_10_0" index="0" speed="13.89" length="5.72" shape="644633.15,5493012.15 644633.92,5493016.22 644633.54,5493017.75"/>
    </edge>
    <edge id=":14319161_11" function="internal">
        <lane id=":14319161_11_0" index="0" speed="13.89" length="2.34" shape="644633.15,5493012.15 644632.78,5493013.54 644632.16,5493014.18"/>
    </edge>
    <edge id=":14319161_18" function="internal">
        <lane id=":14319161_18_0" index="0" speed="13.89" length="9.09" shape="644633.54,5493017.75 644633.13,5493019.38 644630.76,5493021.61 644626.82,5493022.92"/>
    </edge>
    <edge id=":14319161_19" function="internal">
        <lane id=":14319161_19_0" index="0" speed="13.89" length="2.34" shape="644632.16,5493014.18 644631.27,5493014.06 644630.12,5493013.19"/>
    </edge>
    <edge id=":14319161_12" function="internal">
        <lane id=":14319161_12_0" index="0" speed="13.89" length="9.05" shape="644626.26,5493019.77 644628.66,5493018.97 644630.11,5493017.61 644630.60,5493015.68 644630.12,5493013.19"/>
    </edge>
    <edge id=":14319161_13" function="internal">
        <lane id=":14319161_13_0" index="0" speed="13.89" length="15.59" shape="644626.26,5493019.77 644641.50,5493016.50"/>
    </edge>
    <edge id=":14319161_14" function="internal">
        <lane id=":14319161_14_0" index="0" speed="13.89" length="15.67" shape="644626.26,5493019.77 644630.36,5493019.60 644633.87,5493020.64 644636.79,5493022.92 644639.11,5493026.42"/>
    </edge>
    <edge id=":14319161_15" function="internal">
        <lane id=":14319161_15_0" index="0" speed="13.89" length="4.67" shape="644626.26,5493019.77 644627.58,5493020.35 644628.11,5493021.06 644627.86,5493021.92 644626.82,5493022.92"/>
    </edge>
    <edge id=":14319163_0" function="internal">
        <lane id=":14319163_0_0" index="0" speed="13.89" length="9.04" shape="644801.70,5493320.18 644800.49,5493317.98 644798.88,5493316.77 644796.88,5493316.54 644794.48,5493317.28"/>
    </edge>
    <edge id=":14319163_1" function="internal">
        <lane id=":14319163_1_0" index="0" speed="13.89" length="14.63" shape="644801.70,5493320.18 644800.33,5493316.75 644798.85,5493313.44 644797.25,5493310.19 644795.49,5493306.94"/>
    </edge>
    <edge id=":14319163_2" function="internal">
        <lane id=":14319163_2_0" index="0" speed="13.89" length="2.34" shape="644801.70,5493320.18 644802.02,5493318.77 644802.63,5493318.11"/>
    </edge>
    <edge id=":14319163_9" function="internal">
        <lane id=":14319163_9_0" index="0" speed="13.89" length="2.34" shape="644802.63,5493318.11 644803.52,5493318.20 644804.69,5493319.04"/>
    </edge>
    <edge id=":14319163_3" function="internal">
        <lane id=":14319163_3_0" index="0" speed="13.89" length="15.12" shape="644798.27,5493305.37 644800.07,5493308.68 644801.74,5493312.08 644803.29,5493315.54 644804.69,5493319.04"/>
    </edge>
    <edge id=":14319163_4" function="internal">
        <lane id=":14319163_4_0" index="0" speed="13.89" length="6.29" shape="644798.27,5493305.37 644799.73,5493309.10 644799.62,5493311.38"/>
    </edge>
    <edge id=":14319163_5" function="internal">
        <lane id=":14319163_5_0" index="0" speed="13.89" length="2.34" shape="644798.27,5493305.37 644798.17,5493306.80 644797.67,5493307.55"/>
    </edge>
    <edge id=":14319163_10" function="internal">
        <lane id=":14319163_10_0" index="0" speed="13.89" length="8.21" shape="644799.62,5493311.38 644799.58,5493312.33 644797.83,5493315.05 644794.48,5493317.28"/>
    </edge>
    <edge id=":14319163_11" function="internal">
        <lane id=":14319163_11_0" index="0" speed="13.89" length="2.34" shape="644797.67,5493307.55 644796.78,5493307.59 644795.49,5493306.94"/>
    </edge>
    <edge id=":14319163_6" function="internal">
        <lane id=":14319163_6_0" index="0" speed="13.89" length="9.07" shape="644793.11,5493314.40 644795.20,5493313.00 644796.30,5493311.29 644796.40,5493309.27 644795.49,5493306.94"/>
    </edge>
    <edge id=":14319163_7" function="internal">
        <lane id=":14319163_7_0" index="0" speed="13.89" length="14.51" shape="644793.11,5493314.40 644796.95,5493313.20 644800.16,5493313.57 644802.74,5493315.52 644804.69,5493319.04"/>
    </edge>
    <edge id=":14319163_8" function="internal">
        <lane id=":14319163_8_0" index="0" speed="13.89" length="4.67" shape="644793.11,5493314.40 644794.53,5493314.60 644795.24,5493315.15 644795.22,5493316.05 644794.48,5493317.28"/>
    </edge>
    <edge id=":15159498_0" function="internal">
        <lane id=":15159498_0_0" index="0" speed="15.28" length="9.01" shape="645133.22,5493531.88 645132.33,5493529.54 645130.92,5493528.09 645128.99,5493527.52 645126.53,5493527.84"/>
    </edge>
    <edge id=":15159498_1" function="internal">
        <lane id=":15159498_1_0" index="0" speed="13.89" length="4.67" shape="645133.22,5493531.88 645133.75,5493530.54 645134.45,5493529.98 645135.32,5493530.21 645136.35,5493531.22"/>
    </edge>
    <edge id=":15159498_2" function="internal">
        <lane id=":15159498_2_0" index="0" speed="15.28" length="9.28" shape="645140.55,5493524.23 645138.23,5493525.15 645136.76,5493526.62 645136.13,5493528.64 645136.35,5493531.22"/>
    </edge>
    <edge id=":15159498_3" function="internal">
        <lane id=":15159498_3_0" index="0" speed="16.67" length="14.54" shape="645140.55,5493524.23 645126.53,5493527.84"/>
        <lane id=":15159498_3_1" index="1" speed="16.67" length="14.54" shape="645139.82,5493521.12 645125.67,5493524.75"/>
    </edge>
    <edge id=":15159501_0" function="internal">
        <lane id=":15159501_0_0" index="0" speed="19.45" length="0.55" shape="645889.01,5493412.61 645888.81,5493412.75 645888.66,5493412.84 645888.51,5493412.92 645888.29,5493413.03"/>
        <lane id=":15159501_0_1" index="1" speed="19.45" length="0.55" shape="645887.17,5493409.99 645887.10,5493410.04 645887.05,5493410.07 645887.00,5493410.10 645886.93,5493410.13"/>
    </edge>
    <edge id=":15420060_0" function="internal">
        <lane id=":15420060_0_0" index="0" speed="13.89" length="4.67" shape="645506.93,5494354.34 645506.20,5494355.59 645505.43,5494356.04 645504.61,5494355.69 645503.73,5494354.54"/>
    </edge>
    <edge id=":15420062_0" function="internal">
        <lane id=":15420062_0_0" index="0" speed="13.89" length="9.03" shape="645501.61,5494090.19 645499.13,5494090.34 645497.31,5494091.25 645496.15,5494092.92 645495.64,5494095.35"/>
    </edge>
    <edge id=":15420062_1" function="internal">
        <lane id=":15420062_1_0" index="0" speed="13.89" length="13.91" shape="645501.61,5494090.19 645498.05,5494089.80 645494.72,5494089.19 645491.48,5494088.28 645488.13,5494087.00"/>
    </edge>
    <edge id=":15420062_2" function="internal">
        <lane id=":15420062_2_0" index="0" speed="13.89" length="2.34" shape="645501.61,5494090.19 645500.48,5494089.29 645500.14,5494088.46"/>
    </edge>
    <edge id=":15420062_9" function="internal">
        <lane id=":15420062_9_0" index="0" speed="13.89" length="2.34" shape="645500.14,5494088.46 645500.61,5494087.70 645501.87,5494087.00"/>
    </edge>
    <edge id=":15420062_3" function="internal">
        <lane id=":15420062_3_0" index="0" speed="13.89" length="12.88" shape="645489.40,5494084.06 645492.59,5494085.30 645495.49,5494086.12 645498.46,5494086.65 645501.87,5494087.00"/>
    </edge>
    <edge id=":15420062_4" function="internal">
        <lane id=":15420062_4_0" index="0" speed="13.89" length="5.09" shape="645489.40,5494084.06 645492.33,5494085.86 645493.38,5494087.15"/>
    </edge>
    <edge id=":15420062_5" function="internal">
        <lane id=":15420062_5_0" index="0" speed="13.89" length="2.34" shape="645489.40,5494084.06 645490.19,5494085.27 645490.24,5494086.16"/>
    </edge>
    <edge id=":15420062_10" function="internal">
        <lane id=":15420062_10_0" index="0" speed="13.89" length="8.74" shape="645493.38,5494087.15 645494.35,5494088.35 645495.45,5494091.51 645495.64,5494095.35"/>
    </edge>
    <edge id=":15420062_11" function="internal">
        <lane id=":15420062_11_0" index="0" speed="13.89" length="2.34" shape="645490.24,5494086.16 645489.55,5494086.74 645488.13,5494087.00"/>
    </edge>
    <edge id=":15420062_6" function="internal">
        <lane id=":15420062_6_0" index="0" speed="13.89" length="9.88" shape="645492.45,5494095.14 645492.33,5494092.34 645491.57,5494090.05 645490.17,5494088.27 645488.13,5494087.00"/>
    </edge>
    <edge id=":15420062_7" function="internal">
        <lane id=":15420062_7_0" index="0" speed="13.89" length="14.25" shape="645492.45,5494095.14 645493.25,5494091.31 645495.09,5494088.68 645497.96,5494087.24 645501.87,5494087.00"/>
    </edge>
    <edge id=":15420062_8" function="internal">
        <lane id=":15420062_8_0" index="0" speed="13.89" length="4.67" shape="645492.45,5494095.14 645493.32,5494094.00 645494.15,5494093.65 645494.92,5494094.10 645495.64,5494095.35"/>
    </edge>
    <edge id=":16933967_0" function="internal">
        <lane id=":16933967_0_0" index="0" speed="13.89" length="4.67" shape="645209.98,5494319.91 645208.68,5494320.54 645207.79,5494320.48 645207.30,5494319.73 645207.22,5494318.29"/>
    </edge>
    <edge id=":16933968_0" function="internal">
        <lane id=":16933968_0_0" index="0" speed="13.89" length="4.67" shape="645180.99,5494302.15 645179.69,5494302.78 645178.80,5494302.72 645178.31,5494301.97 645178.23,5494300.53"/>
    </edge>
    <edge id=":16933971_0" function="internal">
        <lane id=":16933971_0_0" index="0" speed="13.89" length="9.08" shape="645354.95,5494015.43 645352.88,5494013.85 645350.98,5494013.48 645349.24,5494014.33 645347.66,5494016.39"/>
    </edge>
    <edge id=":16933971_1" function="internal">
        <lane id=":16933971_1_0" index="0" speed="13.89" length="18.72" shape="645354.95,5494015.43 645341.65,5494002.25"/>
    </edge>
    <edge id=":16933971_2" function="internal">
        <lane id=":16933971_2_0" index="0" speed="13.89" length="5.89" shape="645354.95,5494015.43 645352.74,5494012.10 645352.07,5494010.33"/>
    </edge>
    <edge id=":16933971_3" function="internal">
        <lane id=":16933971_3_0" index="0" speed="13.89" length="2.34" shape="645354.95,5494015.43 645354.68,5494014.02 645354.98,5494013.17"/>
    </edge>
    <edge id=":16933971_16" function="internal">
        <lane id=":16933971_16_0" index="0" speed="13.89" length="12.84" shape="645352.07,5494010.33 645351.01,5494007.49 645349.98,5494002.44 645349.91,5493997.78"/>
    </edge>
    <edge id=":16933971_17" function="internal">
        <lane id=":16933971_17_0" index="0" speed="13.89" length="2.34" shape="645354.98,5494013.17 645355.83,5494012.90 645357.24,5494013.20"/>
    </edge>
    <edge id=":16933971_4" function="internal">
        <lane id=":16933971_4_0" index="0" speed="13.89" length="16.13" shape="645353.09,5493998.15 645352.93,5494002.71 645353.57,5494006.74 645355.01,5494010.24 645357.24,5494013.20"/>
    </edge>
    <edge id=":16933971_5" function="internal">