.\" DO NOT MODIFY THIS FILE!  It was generated by help2man 1.47.6.
.TH ECLIPSE "1" "December 2020" "Eclipse SUMO emissionsMap Version 1.8.0" "User Commands"
.SH NAME
Eclipse \- Builds and writes an emissions map for SUMO's emission models
.SH SYNOPSIS
.B emissionsMap
[\fI\,OPTION\/\fR]\fI\,*\/\fR
.SH DESCRIPTION
Eclipse SUMO emissionsMap Version 1.8.0
.IP
Copyright (C) 2001\-2020 German Aerospace Center (DLR) and others; https://sumo.dlr.de
.PP
Builds and writes an emissions map for SUMO's emission models.
.SS "Configuration Options:"
.TP
\fB\-c\fR, \fB\-\-configuration\-file\fR FILE
Loads the named config on startup
.TP
\fB\-C\fR, \fB\-\-save\-configuration\fR FILE
Saves current configuration into FILE
.TP
\fB\-\-save\-template\fR FILE
Saves a configuration template (empty) into
FILE
.TP
\fB\-\-save\-schema\fR FILE
Saves the configuration schema into FILE
.TP
\fB\-\-save\-commented\fR
Adds comments to saved template,
configuration, or schema
.SS "Processing Options:"
.TP
\fB\-i\fR, \fB\-\-iterate\fR
If set, maps for all available emissions are
written.
.TP
\fB\-e\fR, \fB\-\-emission\-class\fR STR
Defines the name of the emission class to
generate the map for.
.TP
\fB\-\-v\-min\fR FLOAT
Defines the minimum velocity boundary of the
map to generate (in m/s).
.TP
\fB\-\-v\-max\fR FLOAT
Defines the maximum velocity boundary of the
map to generate (in m/s).
.TP
\fB\-\-v\-step\fR FLOAT
Defines the velocity step size (in m/s).
.TP
\fB\-\-a\-min\fR FLOAT
Defines the minimum acceleration boundary of
the map to generate (in m/s^2).
.TP
\fB\-\-a\-max\fR FLOAT
Defines the maximum acceleration boundary of
the map to generate (in m/s^2).
.TP
\fB\-\-a\-step\fR FLOAT
Defines the acceleration step size (in
m/s^2).
.TP
\fB\-\-s\-min\fR FLOAT
Defines the minimum slope boundary of the
map to generate (in deg).
.TP
\fB\-\-s\-max\fR FLOAT
Defines the maximum slope boundary of the
map to generate (in deg).
.TP
\fB\-\-s\-step\fR FLOAT
Defines the slope step size (in deg).
.SS "Output Options:"
.TP
\fB\-o\fR, \fB\-\-output\fR STR
Defines the file (or the path if \fB\-\-iterate\fR
was set) to write the map(s) into.
.TP
\fB\-\-write\-license\fR
Include license info into every output file
.TP
\fB\-\-output\-prefix\fR STR
Prefix which is applied to all output files.
The special string 'TIME' is replaced by the
current time.
.TP
\fB\-\-precision\fR INT
Defines the number of digits after the comma
for floating point output
.TP
\fB\-\-precision\fR.geo INT
Defines the number of digits after the comma
for lon,lat output
.TP
\fB\-H\fR, \fB\-\-human\-readable\-time\fR
Write time values as hour:minute:second or
day:hour:minute:second rather than seconds
.SS "Emissions Options:"
.TP
\fB\-\-phemlight\-path\fR FILE
Determines where to load PHEMlight
definitions from.
.SS "Report Options:"
.TP
\fB\-v\fR, \fB\-\-verbose\fR
Switches to verbose output
.TP
\fB\-\-print\-options\fR
Prints option values before processing
.TP
\-?, \fB\-\-help\fR
Prints this screen or selected topics
.TP
\fB\-V\fR, \fB\-\-version\fR
Prints the current version
.TP
\fB\-X\fR, \fB\-\-xml\-validation\fR STR
Set schema validation scheme of XML inputs
("never", "auto" or "always")
.TP
\fB\-W\fR, \fB\-\-no\-warnings\fR
Disables output of warnings
.TP
\fB\-\-aggregate\-warnings\fR INT
Aggregate warnings of the same type whenever
more than INT occur
.TP
\fB\-l\fR, \fB\-\-log\fR FILE
Writes all messages to FILE (implies
verbose)
.TP
\fB\-\-message\-log\fR FILE
Writes all non\-error messages to FILE
(implies verbose)
.TP
\fB\-\-error\-log\fR FILE
Writes all warnings and errors to FILE
.SH "REPORTING BUGS"
Report bugs at <https://github.com/eclipse/sumo/issues>.
.br
Get in contact via <sumo@dlr.de>.
.IP
.br
Build features: Linux\-4.15.0\-117\-generic x86_64 GNU 7.5.0 Release Proj GUI SWIG
.br
Copyright (C) 2001\-2020 German Aerospace Center (DLR) and others; https://sumo.dlr.de
.PP
.br
Eclipse SUMO emissionsMap Version 1.8.0 is part of SUMO.
.br
This program and the accompanying materials
are made available under the terms of the Eclipse Public License v2.0
which accompanies this distribution, and is available at
http://www.eclipse.org/legal/epl\-v20.html
.br
SPDX\-License\-Identifier: EPL\-2.0
