.\" DO NOT MODIFY THIS FILE!  It was generated by help2man 1.47.6.
.TH ECLIPSE "1" "December 2020" "Eclipse SUMO netconvert Version 1.8.0" "User Commands"
.SH NAME
Eclipse \- Road network importer / builder for the traffic simulation SUMO
.SH SYNOPSIS
.B netconvert
[\fI\,OPTION\/\fR]\fI\,*\/\fR
.SH DESCRIPTION
Eclipse SUMO netconvert Version 1.8.0
.IP
Copyright (C) 2001\-2020 German Aerospace Center (DLR) and others; https://sumo.dlr.de
.PP
Network importer / builder for the microscopic, multi\-modal traffic simulation
.IP
SUMO.
.SS "Configuration Options:"
.TP
\fB\-c\fR, \fB\-\-configuration\-file\fR FILE
Loads the named config on startup
.TP
\fB\-C\fR, \fB\-\-save\-configuration\fR FILE
Saves current configuration into FILE
.TP
\fB\-\-save\-template\fR FILE
Saves a configuration template (empty)
into FILE
.TP
\fB\-\-save\-schema\fR FILE
Saves the configuration schema into FILE
.TP
\fB\-\-save\-commented\fR
Adds comments to saved template,
configuration, or schema
.SS "Input Options:"
.TP
\fB\-s\fR, \fB\-\-sumo\-net\-file\fR FILE
Read SUMO\-net from FILE
.TP
\fB\-n\fR, \fB\-\-node\-files\fR FILE
Read XML\-node defs from FILE
.TP
\fB\-e\fR, \fB\-\-edge\-files\fR FILE
Read XML\-edge defs from FILE
.TP
\fB\-x\fR, \fB\-\-connection\-files\fR FILE
Read XML\-connection defs from FILE
.TP
\fB\-i\fR, \fB\-\-tllogic\-files\fR FILE
Read XML\-traffic light defs from FILE
.TP
\fB\-t\fR, \fB\-\-type\-files\fR FILE
Read XML\-type defs from FILE
.TP
\fB\-\-ptstop\-files\fR FILE
Reads public transport stops from FILE
.TP
\fB\-\-ptline\-files\fR FILE
Reads public transport lines from FILE
.TP
\fB\-\-polygon\-files\fR FILE
Reads polygons from FILE for embedding
in network where applicable
.TP
\fB\-\-shapefile\-prefix\fR FILE
Read shapefiles (ArcView, Tiger, ...)
from files starting with 'FILE'
.TP
\fB\-\-dlr\-navteq\-prefix\fR FILE
Read converted Navteq GDF data
(unsplitted Elmar\-network) from path
\&'FILE'
.TP
\fB\-\-osm\-files\fR FILE
Read OSM\-network from path 'FILE(s)'
.TP
\fB\-\-opendrive\-files\fR FILE
Read OpenDRIVE\-network from FILE
.TP
\fB\-\-visum\-file\fR FILE
Read VISUM\-net from FILE
.TP
\fB\-\-vissim\-file\fR FILE
Read VISSIM\-net from FILE
.TP
\fB\-\-robocup\-dir\fR FILE
Read RoboCup\-net from DIR
.TP
\fB\-\-matsim\-files\fR FILE
Read MATsim\-net from FILE
.TP
\fB\-\-itsumo\-files\fR FILE
Read ITSUMO\-net from FILE
.TP
\fB\-\-heightmap\fR.shapefiles FILE
Read heightmap from ArcGIS shapefile
.TP
\fB\-\-heightmap\fR.geotiff FILE
Read heightmap from GeoTIFF
.SS "Output Options:"
.TP
\fB\-\-write\-license\fR
Include license info into every output
file
.TP
\fB\-\-output\-prefix\fR STR
Prefix which is applied to all output
files. The special string 'TIME' is
replaced by the current time.
.TP
\fB\-\-precision\fR INT
Defines the number of digits after the
comma for floating point output
.TP
\fB\-\-precision\fR.geo INT
Defines the number of digits after the
comma for lon,lat output
.TP
\fB\-H\fR, \fB\-\-human\-readable\-time\fR
Write time values as hour:minute:second
or day:hour:minute:second rather than
seconds
.TP
\fB\-o\fR, \fB\-\-output\-file\fR FILE
The generated net will be written to
FILE
.TP
\fB\-\-plain\-output\-prefix\fR FILE
Prefix of files to write plain xml
nodes, edges and connections to
.TP
\fB\-\-junctions\fR.join\-output FILE
Writes information about joined
junctions to FILE (can be loaded as
additional node\-file to reproduce joins
.TP
\fB\-\-prefix\fR STR
Defines a prefix for edge and junction
names
.TP
\fB\-\-amitran\-output\fR FILE
The generated net will be written to
FILE using Amitran format
.TP
\fB\-\-matsim\-output\fR FILE
The generated net will be written to
FILE using MATsim format
.TP
\fB\-\-opendrive\-output\fR FILE
The generated net will be written to
FILE using OpenDRIVE format
.TP
\fB\-\-dlr\-navteq\-output\fR FILE
The generated net will be written to
dlr\-navteq files with the given PREFIX
.TP
\fB\-\-dlr\-navteq\fR.precision INT
The network coordinates are written with
the specified level of output precision
.TP
\fB\-\-output\fR.street\-names
Street names will be included in the
output (if available)
.TP
\fB\-\-output\fR.original\-names
Writes original names, if given, as
parameter
.TP
\fB\-\-street\-sign\-output\fR FILE
Writes street signs as POIs to FILE
.TP
\fB\-\-ptstop\-output\fR FILE
Writes public transport stops to FILE
.TP
\fB\-\-ptline\-output\fR FILE
Writes public transport lines to FILE
.TP
\fB\-\-ptline\-clean\-up\fR
Clean\-up pt stops that are not served by
any line
.TP
\fB\-\-parking\-output\fR FILE
Writes parking areas to FILE
.TP
\fB\-\-railway\fR.topology.output FILE
Analyze topology of the railway network
.TP
\fB\-\-polygon\-output\fR FILE
Write shapes that are embedded in the
network input and that are not supported
by polyconvert (OpenDRIVE)
.TP
\fB\-\-opendrive\-output\fR.straight\-threshold FLOAT
Builds parameterized curves
whenever the angular change  between
straight segments exceeds FLOAT degrees
.SS "Projection Options:"
.TP
\fB\-\-simple\-projection\fR
Uses a simple method for projection
.TP
\fB\-\-proj\fR.scale FLOAT
Scaling factor for input coordinates
.TP
\fB\-\-proj\fR.rotate FLOAT
Rotation (clockwise degrees) for input
coordinates
.TP
\fB\-\-proj\fR.utm
Determine the UTM zone (for a universal
transversal mercator projection based on
the WGS84 ellipsoid)
.TP
\fB\-\-proj\fR.dhdn
Determine the DHDN zone (for a
transversal mercator projection based on
the bessel ellipsoid, "Gauss\-Krueger")
.TP
\fB\-\-proj\fR STR
Uses STR as proj.4 definition for
projection
.TP
\fB\-\-proj\fR.inverse
Inverses projection
.TP
\fB\-\-proj\fR.dhdnutm
Convert from Gauss\-Krueger to UTM
.TP
\fB\-\-proj\fR.plain\-geo
Write geo coordinates in plain\-xml
.SS "Processing Options:"
.TP
\fB\-\-speed\-in\-kmh\fR
vmax is parsed as given in km/h (some)
.TP
\fB\-\-construction\-date\fR STR
Use YYYY\-MM\-DD date to determine the
readiness of features under construction
.TP
\fB\-\-flatten\fR
Remove all z\-data
.TP
\fB\-\-plain\fR.extend\-edge\-shape
If edge shapes do not end at the node
positions, extend them
.TP
\fB\-\-numerical\-ids\fR
Remaps alphanumerical IDs of nodes and
edges to ensure that all IDs are
integers
.TP
\fB\-\-numerical\-ids\fR.node\-start INT
Remaps IDs of nodes to integers starting
at INT
.TP
\fB\-\-numerical\-ids\fR.edge\-start INT
Remaps IDs of edges to integers starting
at INT
.TP
\fB\-\-reserved\-ids\fR FILE
Ensures that generated ids do not
included any of the typed IDs from FILE
(sumo\-gui selection file format)
.TP
\fB\-\-dismiss\-vclasses\fR
Removes vehicle class restrictions from
imported edges
.TP
\fB\-\-geometry\fR.split
Splits edges across geometry nodes
.TP
\fB\-R\fR, \fB\-\-geometry\fR.remove
Replace nodes which only define edge
geometry by geometry points (joins
edges)
.TP
\fB\-\-geometry\fR.remove.keep\-edges.explicit STR[]
Ensure that the given list of
edges is not modified
.TP
\fB\-\-geometry\fR.remove.keep\-edges.input\-file FILE
Ensure that the edges in FILE
are not modified (Each id on a single
line. Selection files from sumo\-gui are
also supported)
.TP
\fB\-\-geometry\fR.remove.min\-length FLOAT
Allow merging edges with differing
attributes when their length is below
min\-length
.TP
\fB\-\-geometry\fR.remove.width\-tolerance FLOAT
Allow merging edges with differing
lane widths if the difference is below
FLOAT
.TP
\fB\-\-geometry\fR.max\-segment\-length FLOAT
splits geometry to restrict segment
length
.TP
\fB\-\-geometry\fR.min\-dist FLOAT
reduces too similar geometry points
.TP
\fB\-\-geometry\fR.max\-angle FLOAT
Warn about edge geometries with an angle
above DEGREES in successive segments
.TP
\fB\-\-geometry\fR.min\-radius FLOAT
Warn about edge geometries with a
turning radius less than METERS at the
start or end
.TP
\fB\-\-geometry\fR.min\-radius.fix
Straighten edge geometries to avoid
turning radii less than
geometry.min\-radius
.TP
\fB\-\-geometry\fR.min\-radius.fix.railways
Straighten edge geometries to avoid
turning radii less than
geometry.min\-radius (only railways)
.TP
\fB\-\-geometry\fR.junction\-mismatch\-threshold FLOAT
Warn if the junction shape is
to far away from the original node
position
.TP
\fB\-\-geometry\fR.check\-overlap FLOAT
Warn if edges overlap by more than the
given threshold value
.TP
\fB\-\-geometry\fR.check\-overlap.vertical\-threshold FLOAT
Ignore overlapping edges
if they are separated vertically by the
given threshold.
.TP
\fB\-\-geometry\fR.avoid\-overlap
Modify edge geometries to avoid overlap
at junctions
.TP
\fB\-\-join\-lanes\fR
join adjacent lanes that have the same
permissions and which do not admit
lane\-changing (sidewalks and disallowed
lanes)
.TP
\fB\-\-ptline\fR.match\-dist FLOAT
Matches stops outside the road network
to the referencing pt line when below
the given distance
.TP
\fB\-\-ptstop\-output\fR.no\-bidi
Skips automatic generation of stops on
the bidi\-edge of a loaded stop
.TP
\fB\-\-geometry\fR.max\-grade FLOAT
Warn about edge geometries with a grade
in % above FLOAT.
.TP
\fB\-\-geometry\fR.max\-grade.fix
Smooth edge edge geometries with a grade
in above the warning threshold.
.TP
\fB\-\-offset\fR.disable\-normalization
Turn off normalizing node positions
.TP
\fB\-\-offset\fR.x FLOAT
Adds FLOAT to net x\-positions
.TP
\fB\-\-offset\fR.y FLOAT
Adds FLOAT to net y\-positions
.TP
\fB\-\-offset\fR.z FLOAT
Adds FLOAT to net z\-positions
.TP
\fB\-\-flip\-y\-axis\fR
Flips the y\-coordinate along zero
.TP
\fB\-\-roundabouts\fR.guess
Enable roundabout\-guessing
.TP
\fB\-\-roundabouts\fR.visibility\-distance FLOAT
Default visibility when approaching
a roundabout
.TP
\fB\-\-opposites\fR.guess
Enable guessing of opposite direction
lanes usable for overtaking
.TP
\fB\-\-opposites\fR.guess.fix\-lengths
Ensure that opposite edges have the same
length
.TP
\fB\-\-fringe\fR.guess
Enable guessing of network fringe nodes
.TP
\fB\-\-lefthand\fR
Assumes left\-hand traffic on the network
.TP
\fB\-\-edges\fR.join
Merges edges which connect the same
nodes and are close to each other
(recommended for VISSIM import)
.TP
\fB\-\-speed\fR.offset FLOAT
Modifies all edge speeds by adding FLOAT
.TP
\fB\-\-speed\fR.factor FLOAT
Modifies all edge speeds by multiplying
by FLOAT
.TP
\fB\-\-speed\fR.minimum FLOAT
Modifies all edge speeds to at least
FLOAT
.TP
\fB\-\-edges\fR.join\-tram\-dist FLOAT
Joins tram edges into road lanes with
similar geometry (within FLOAT distance)
.SS "Building Defaults Options:"
.TP
\fB\-L\fR, \fB\-\-default\fR.lanenumber INT
The default number of lanes in an edge
.TP
\fB\-\-default\fR.lanewidth FLOAT
The default width of lanes
.TP
\fB\-\-default\fR.spreadtype STR
The default method for computing lane
shapes from edge shapes
.TP
\fB\-S\fR, \fB\-\-default\fR.speed FLOAT
The default speed on an edge (in m/s)
.TP
\fB\-P\fR, \fB\-\-default\fR.priority INT
The default priority of an edge
.TP
\fB\-\-default\fR.type STR
The default edge type
.TP
\fB\-\-default\fR.sidewalk\-width FLOAT
The default width of added sidewalks
.TP
\fB\-\-default\fR.bikelane\-width FLOAT
The default width of added bike lanes
.TP
\fB\-\-default\fR.crossing\-width FLOAT
The default width of a pedestrian
crossing
.TP
\fB\-\-default\fR.disallow STR
The default for disallowed vehicle
classes
.TP
\fB\-\-default\fR.junctions.keep\-clear
Whether junctions should be kept clear
by default
.TP
\fB\-\-default\fR.junctions.radius FLOAT
The default turning radius of
intersections
.TP
\fB\-\-default\fR.connection\-length FLOAT
The default length when overriding
connection lengths
.TP
\fB\-\-default\fR.right\-of\-way STR
The default algorithm for computing
right of way rules ('default',
\&'edgePriority')
.SS "TLS Building Options:"
.TP
\fB\-\-tls\fR.discard\-loaded
Does not instatiate traffic lights
loaded from other formats than plain\-XML
.TP
\fB\-\-tls\fR.discard\-simple
Does not instatiate traffic lights at
geometry\-like nodes loaded from other
formats than plain\-XML
.TP
\fB\-\-tls\fR.set STR[]
Interprets STR[] as list of junctions to
be controlled by TLS
.TP
\fB\-\-tls\fR.unset STR[]
Interprets STR[] as list of junctions to
be not controlled by TLS
.TP
\fB\-\-tls\fR.guess
Turns on TLS guessing
.TP
\fB\-\-tls\fR.guess.threshold FLOAT
Sets minimum value for the sum of all
incoming lane speeds when guessing TLS
.TP
\fB\-\-tls\fR.taz\-nodes
Sets district nodes as tls\-controlled
.TP
\fB\-\-tls\fR.guess.joining
Includes node clusters into guess
.TP
\fB\-\-tls\fR.join
Tries to cluster tls\-controlled nodes
.TP
\fB\-\-tls\fR.join\-dist FLOAT
Determines the maximal distance for
joining traffic lights (defaults to 20)
.TP
\fB\-\-tls\fR.uncontrolled\-within
Do not control edges that lie fully
within a joined traffic light. This may
cause collisions but allows old traffic
light plans to be used
.TP
\fB\-\-tls\fR.ignore\-internal\-junction\-jam
Do not build mutually conflicting
response matrix, potentially ignoring
vehicles that are stuck at an internal
junction when their phase has ended
.TP
\fB\-\-tls\fR.guess\-signals
Interprets tls nodes surrounding an
intersection as signal positions for a
larger TLS. This is typical pattern for
OSM\-derived networks
.TP
\fB\-\-tls\fR.guess\-signals.dist FLOAT
Distance for interpreting nodes as
signal locations
.TP
\fB\-\-tls\fR.cycle.time INT
Use INT as cycle duration
.TP
\fB\-\-tls\fR.green.time INT
Use INT as green phase duration
.TP
\fB\-D\fR, \fB\-\-tls\fR.yellow.min\-decel FLOAT
Defines smallest vehicle deceleration
.TP
\fB\-\-tls\fR.yellow.patch\-small
Given yellow times are patched even if
being too short
.TP
\fB\-\-tls\fR.yellow.time INT
Set INT as fixed time for yellow phase
durations
.TP
\fB\-\-tls\fR.red.time INT
Set INT as fixed time for red phase
duration at traffic lights that do not
have a conflicting flow
.TP
\fB\-\-tls\fR.allred.time INT
Set INT as fixed time for intermediate
red phase after every switch
.TP
\fB\-\-tls\fR.minor\-left.max\-speed FLOAT
Use FLOAT as threshold for allowing
left\-turning vehicles to move in the
same phase as oncoming straight\-going
vehicles
.TP
\fB\-\-tls\fR.left\-green.time INT
Use INT as green phase duration for left
turns (s). Setting this value to 0
disables additional left\-turning phases
.TP
\fB\-\-tls\fR.crossing\-min.time INT
Use INT as minimum green duration for
pedestrian crossings (s).
.TP
\fB\-\-tls\fR.crossing\-clearance.time INT
Use INT as clearance time for pedestrian
crossings (s).
.TP
\fB\-\-tls\fR.scramble.time INT
Use INT as green phase duration for
pedestrian scramble phase (s).
.TP
\fB\-\-tls\fR.half\-offset STR[]
TLSs in STR[] will be shifted by
half\-phase
.TP
\fB\-\-tls\fR.quarter\-offset STR[]
TLSs in STR[] will be shifted by
quarter\-phase
.TP
\fB\-\-tls\fR.default\-type STR
TLSs with unspecified type will use STR
as their algorithm
.TP
\fB\-\-tls\fR.layout STR
Set phase layout four grouping opposite
directions or grouping all movements for
one incoming edge ['opposites',
\&'incoming']
.TP
\fB\-\-tls\fR.min\-dur INT
Default minimum phase duration for
traffic lights with variable phase
length
.TP
\fB\-\-tls\fR.max\-dur INT
Default maximum phase duration for
traffic lights with variable phase
length
.TP
\fB\-\-tls\fR.group\-signals
Assign the same tls link index to
connections that share the same states
.TP
\fB\-\-tls\fR.ungroup\-signals
Assign a distinct tls link index to
every connection
.SS "Ramp Guessing Options:"
.TP
\fB\-\-ramps\fR.guess
Enable ramp\-guessing
.TP
\fB\-\-ramps\fR.guess\-acceleration\-lanes
Guess on\-ramps and mark acceleration
lanes if they exist but do not add new
lanes
.TP
\fB\-\-ramps\fR.max\-ramp\-speed FLOAT
Treat edges with speed > FLOAT as no
ramps
.TP
\fB\-\-ramps\fR.min\-highway\-speed FLOAT
Treat edges with speed < FLOAT as no
highways
.TP
\fB\-\-ramps\fR.ramp\-length FLOAT
Use FLOAT as ramp\-length
.TP
\fB\-\-ramps\fR.min\-weave\-length FLOAT
Use FLOAT as minimum ramp\-length
.TP
\fB\-\-ramps\fR.set STR[]
Tries to handle the given edges as ramps
.TP
\fB\-\-ramps\fR.unset STR[]
Do not consider the given edges as ramps
.TP
\fB\-\-ramps\fR.no\-split
Avoids edge splitting
.SS "Edge Removal Options:"
.TP
\fB\-\-keep\-edges\fR.min\-speed FLOAT
Only keep edges with speed in
meters/second > FLOAT
.TP
\fB\-\-remove\-edges\fR.explicit STR[]
Remove edges in STR[]
.TP
\fB\-\-keep\-edges\fR.explicit STR[]
Only keep edges in STR[] or those which
are kept due to other keep\-edges or
remove\-edges options
.TP
\fB\-\-keep\-edges\fR.input\-file FILE
Only keep edges in FILE (Each id on a
single line. Selection files from
sumo\-gui are also supported) or those
which are kept due to other keep\-edges
or remove\-edges options
.TP
\fB\-\-remove\-edges\fR.input\-file FILE
Remove edges in FILE. (Each id on a
single line. Selection files from
sumo\-gui are also supported)
.TP
\fB\-\-keep\-edges\fR.postload
Remove edges after joining
.TP
\fB\-\-keep\-edges\fR.in\-boundary STR[]
Only keep edges which are located within
the given boundary (given either as
CARTESIAN corner coordinates
<xmin,ymin,xmax,ymax> or as polygon
<x0,y0,x1,y1,...>)
.TP
\fB\-\-keep\-edges\fR.in\-geo\-boundary STR[]
Only keep edges which are located within
the given boundary (given either as
GEODETIC corner coordinates
<lon\-min,lat\-min,lon\-max,lat\-max> or as
polygon <lon0,lat0,lon1,lat1,...>)
.TP
\fB\-\-keep\-edges\fR.by\-vclass STR[]
Only keep edges which allow one of the
vclasss in STR[]
.TP
\fB\-\-remove\-edges\fR.by\-vclass STR[]
Remove edges which allow only vclasses
from STR[]
.TP
\fB\-\-keep\-edges\fR.by\-type STR[]
Only keep edges where type is in STR[]
.TP
\fB\-\-keep\-edges\fR.components INT
Only keep the INT largest weakly
connected components
.TP
\fB\-\-remove\-edges\fR.by\-type STR[]
Remove edges where type is in STR[]
.TP
\fB\-\-remove\-edges\fR.isolated
Removes isolated edges
.SS "Unregulated Nodes Options:"
.TP
\fB\-\-keep\-nodes\-unregulated\fR
All nodes will be unregulated
.TP
\fB\-\-keep\-nodes\-unregulated\fR.explicit STR[]
Do not regulate nodes in STR[]
.TP
\fB\-\-keep\-nodes\-unregulated\fR.district\-nodes
Do not regulate district nodes
.SS "Junctions Options:"
.TP
\fB\-\-junctions\fR.right\-before\-left.speed\-threshold FLOAT
Allow building
right\-before\-left junctions when the
incoming edge speeds are below FLOAT
(m/s)
.TP
\fB\-\-no\-internal\-links\fR
Omits internal links
.TP
\fB\-\-no\-turnarounds\fR
Disables building turnarounds
.TP
\fB\-\-no\-turnarounds\fR.tls
Disables building turnarounds at
tls\-controlled junctions
.TP
\fB\-\-no\-turnarounds\fR.geometry
Disables building turnarounds at
geometry\-like junctions
.TP
\fB\-\-no\-turnarounds\fR.except\-deadend
Disables building turnarounds except at
dead end junctions
.TP
\fB\-\-no\-turnarounds\fR.except\-turnlane
Disables building turnarounds except at
at junctions with a dedicated turning
lane
.TP
\fB\-\-no\-turnarounds\fR.fringe
Disables building turnarounds at fringe
junctions
.TP
\fB\-\-no\-left\-connections\fR
Disables building connections to left
.TP
\fB\-\-junctions\fR.join
Joins junctions that are close to each
other (recommended for OSM import)
.TP
\fB\-\-junctions\fR.join\-dist FLOAT
Determines the maximal distance for
joining junctions (defaults to 10)
.TP
\fB\-\-junctions\fR.join\-exclude STR[]
Interprets STR[] as list of junctions to
exclude from joining
.TP
\fB\-\-junctions\fR.join\-same
Joins junctions that have the same
coordinates even if not connected
.TP
\fB\-\-junctions\fR.corner\-detail INT
Generate INT intermediate points to
smooth out intersection corners
.TP
\fB\-\-junctions\fR.internal\-link\-detail INT
Generate INT intermediate points to
smooth out lanes within the intersection
.TP
\fB\-\-junctions\fR.scurve\-stretch FLOAT
Generate longer intersections to allow
for smooth s\-curves when the number of
lanes changes
.TP
\fB\-\-junctions\fR.join\-turns
Builds common edges for turning
connections with common from\- and
to\-edge. This causes discrepancies
between geometrical length and assigned
length due to averaging but enables
lane\-changing while turning
.TP
\fB\-\-junctions\fR.limit\-turn\-speed FLOAT
Limits speed on junctions to an average
lateral acceleration of at most FLOAT
m/s^2)
.TP
\fB\-\-junctions\fR.limit\-turn\-speed.min\-angle FLOAT
Do not limit turn speed for
angular changes below FLOAT (degrees).
The value is subtracted from the
geometric angle before computing the
turning radius.
.TP
\fB\-\-junctions\fR.limit\-turn\-speed.min\-angle.railway FLOAT
Do not limit turn speed
for angular changes below FLOAT
(degrees) on railway edges. The value is
subtracted from the geometric angle
before computing the turning radius.
.TP
\fB\-\-junctions\fR.limit\-turn\-speed.warn.straight FLOAT
Warn about turn speed
limits that reduce the speed of straight
connections by more than FLOAT
.TP
\fB\-\-junctions\fR.limit\-turn\-speed.warn.turn FLOAT
Warn about turn speed limits
that reduce the speed of turning
connections (no u\-turns) by more than
FLOAT
.TP
\fB\-\-junctions\fR.small\-radius FLOAT
Default radius for junctions that do not
require wide vehicle turns
.TP
\fB\-\-rectangular\-lane\-cut\fR
Forces rectangular cuts between lanes
and intersections
.TP
\fB\-\-check\-lane\-foes\fR.roundabout
Allow driving onto a multi\-lane road if
there are foes on other lanes (at
roundabouts)
.TP
\fB\-\-check\-lane\-foes\fR.all
Allow driving onto a multi\-lane road if
there are foes on other lanes
(everywhere)
.SS "Pedestrian Options:"
.TP
\fB\-\-sidewalks\fR.guess
Guess pedestrian sidewalks based on edge
speed
.TP
\fB\-\-sidewalks\fR.guess.max\-speed FLOAT
Add sidewalks for edges with a speed
equal or below the given limit
.TP
\fB\-\-sidewalks\fR.guess.min\-speed FLOAT
Add sidewalks for edges with a speed
above the given limit
.TP
\fB\-\-sidewalks\fR.guess.from\-permissions
Add sidewalks for edges that allow
pedestrians on any of their lanes
regardless of speed
.TP
\fB\-\-sidewalks\fR.guess.exclude STR[]
Do not guess sidewalks for the given
list of edges
.TP
\fB\-\-crossings\fR.guess
Guess pedestrian crossings based on the
presence of sidewalks
.TP
\fB\-\-crossings\fR.guess.speed\-threshold FLOAT
At uncontrolled nodes, do not build
crossings across edges with a speed
above the threshold
.TP
\fB\-\-walkingareas\fR
Always build walking areas even if there
are no crossings
.TP
\fB\-\-walkingareas\fR.join\-dist FLOAT
Do not create a walkingarea between
sidewalks that are connected by a
pedestrian junction within FLOAT
.SS "Bicycle Options:"
.TP
\fB\-\-bikelanes\fR.guess
Guess bike lanes based on edge speed
.TP
\fB\-\-bikelanes\fR.guess.max\-speed FLOAT
Add bike lanes for edges with a speed
equal or below the given limit
.TP
\fB\-\-bikelanes\fR.guess.min\-speed FLOAT
Add bike lanes for edges with a speed
above the given limit
.TP
\fB\-\-bikelanes\fR.guess.from\-permissions
Add bike lanes for edges that allow
bicycles on any of their lanes
regardless of speed
.TP
\fB\-\-bikelanes\fR.guess.exclude STR[]
Do not guess bikelanes for the given
list of edges
.SS "Railway Options:"
.TP
\fB\-\-railway\fR.signals.discard
Discard all railway signal information
loaded from other formats than plain\-xml
.TP
\fB\-\-railway\fR.topology.repair
Repair topology of the railway network
.TP
\fB\-\-railway\fR.topology.repair.connect\-straight
Allow bidiretional rail use
wherever rails with opposite directions
meet at a straight angle
.TP
\fB\-\-railway\fR.topology.repair.stop\-turn
Add turn\-around connections at all
loaded stops.
.TP
\fB\-\-railway\fR.topology.all\-bidi
Make all rails usable in both direction
.TP
\fB\-\-railway\fR.topology.all\-bidi.input\-file FILE
Make all rails edge ids from
FILE usable in both direction
.TP
\fB\-\-railway\fR.topology.direction\-priority
Set edge priority values based on
estimated main direction
.TP
\fB\-\-railway\fR.access\-distance FLOAT
The search radius for finding suitable
road accesses for rail stops
.TP
\fB\-\-railway\fR.max\-accesses INT
The maximum roud accesses registered per
rail stops
.TP
\fB\-\-railway\fR.access\-factor FLOAT
The walking length of the access is
computed as air\-line distance multiplied
by FLOAT
.SS "Formats Options:"
.TP
\fB\-\-discard\-params\fR STR[]
Remove the list of keys from all params
.TP
\fB\-\-osm\fR.skip\-duplicates\-check
Skips the check for duplicate nodes and
edges
.TP
\fB\-\-osm\fR.elevation
Imports elevation data
.TP
\fB\-\-osm\fR.layer\-elevation FLOAT
Reconstruct (relative) elevation based
on layer data. Each layer is raised by
FLOAT m
.TP
\fB\-\-osm\fR.layer\-elevation.max\-grade FLOAT
Maximum grade threshold in % at 50km/h
when reconstrucing elevation based on
layer data. The value is scaled
according to road speed.
.TP
\fB\-\-osm\fR.oneway\-spread\-right
Whether one\-way roads should be spread
to the side instead of centered
.TP
\fB\-\-osm\fR.stop\-output.length FLOAT
The default length of a public transport
stop in FLOAT m
.TP
\fB\-\-osm\fR.stop\-output.length.bus FLOAT
The default length of a bus stop in
FLOAT m
.TP
\fB\-\-osm\fR.stop\-output.length.tram FLOAT
The default length of a tram stop in
FLOAT m
.TP
\fB\-\-osm\fR.stop\-output.length.train FLOAT
The default length of a train stop in
FLOAT m
.TP
\fB\-\-osm\fR.all\-attributes
Whether additional attributes shall be
imported
.TP
\fB\-\-matsim\fR.keep\-length
The edge lengths given in the
MATSIM\-file will be kept
.TP
\fB\-\-matsim\fR.lanes\-from\-capacity
The lane number will be computed from
the capacity
.TP
\fB\-\-shapefile\fR.street\-id STR
Read edge ids from column STR
.TP
\fB\-\-shapefile\fR.from\-id STR
Read from\-node ids from column STR
.TP
\fB\-\-shapefile\fR.to\-id STR
Read to\-node ids from column STR
.TP
\fB\-\-shapefile\fR.type\-id STR
Read type ids from column STR
.TP
\fB\-\-shapefile\fR.laneNumber STR
Read lane number from column STR
.TP
\fB\-\-shapefile\fR.speed STR
Read speed from column STR
.TP
\fB\-\-shapefile\fR.name STR
Read (non\-unique) name from column STR
.TP
\fB\-\-shapefile\fR.node\-join\-dist FLOAT
Distance threshold for determining
whether distinct shapes are connected
(used when from\-id and to\-id are not
available)
.TP
\fB\-\-shapefile\fR.add\-params STR[]
Add the list of field names as edge
params
.TP
\fB\-\-shapefile\fR.use\-defaults\-on\-failure
Uses edge type defaults on problems
.TP
\fB\-\-shapefile\fR.all\-bidirectional
Insert edges in both directions
.TP
\fB\-\-shapefile\fR.guess\-projection
Guess the proper projection
.TP
\fB\-\-shapefile\fR.traditional\-axis\-mapping
Use traditional axis order (lon, lat)
.TP
\fB\-\-dlr\-navteq\fR.tolerant\-permissions
Allow more vehicle classes by default
.TP
\fB\-\-dlr\-navteq\fR.keep\-length
The edge lengths given in the DLR
Navteq\-file will be kept
.TP
\fB\-\-vissim\fR.join\-distance FLOAT
Structure join offset
.TP
\fB\-\-vissim\fR.default\-speed FLOAT
Use FLOAT as default speed
.TP
\fB\-\-vissim\fR.speed\-norm FLOAT
Factor for edge velocity
.TP
\fB\-\-vissim\fR.report\-unset\-speeds
Writes lanes without an explicit speed
set
.TP
\fB\-\-visum\fR.language\-file FILE
Load language mappings from FILE
.TP
\fB\-\-visum\fR.use\-type\-priority
Uses priorities from types
.TP
\fB\-\-visum\fR.use\-type\-laneno
Uses lane numbers from types
.TP
\fB\-\-visum\fR.use\-type\-speed
Uses speeds from types
.TP
\fB\-\-visum\fR.connector\-speeds FLOAT
Sets connector speed
.TP
\fB\-\-visum\fR.connectors\-lane\-number INT
Sets connector lane number
.TP
\fB\-\-visum\fR.no\-connectors
Excludes connectors
.TP
\fB\-\-visum\fR.recompute\-lane\-number
Computes the number of lanes from the
edges' capacities
.TP
\fB\-\-visum\fR.verbose\-warnings
Prints all warnings, some of which are
due to VISUM misbehaviour
.TP
\fB\-\-visum\fR.lanes\-from\-capacity.norm FLOAT
The factor for flow to no. lanes
conversion
.TP
\fB\-\-opendrive\fR.import\-all\-lanes
Imports all lane types
.TP
\fB\-\-opendrive\fR.ignore\-widths
Whether lane widths shall be ignored.
.TP
\fB\-\-opendrive\fR.curve\-resolution FLOAT
The geometry resolution in m when
importing curved geometries as line
segments.
.TP
\fB\-\-opendrive\fR.advance\-stopline FLOAT
Allow stop lines to be built beyond the
start of the junction if the geometries
allow so
.TP
\fB\-\-opendrive\fR.min\-width FLOAT
The minimum lane width for determining
start or end of variable\-width lanes
.TP
\fB\-\-opendrive\fR.internal\-shapes
Import internal lane shapes
.SS "Report Options:"
.TP
\fB\-v\fR, \fB\-\-verbose\fR
Switches to verbose output
.TP
\fB\-\-print\-options\fR
Prints option values before processing
.TP
\-?, \fB\-\-help\fR
Prints this screen or selected topics
.TP
\fB\-V\fR, \fB\-\-version\fR
Prints the current version
.TP
\fB\-X\fR, \fB\-\-xml\-validation\fR STR
Set schema validation scheme of XML
inputs ("never", "auto" or "always")
.TP
\fB\-\-xml\-validation\fR.net STR
Set schema validation scheme of SUMO
network inputs ("never", "auto" or
"always")
.TP
\fB\-W\fR, \fB\-\-no\-warnings\fR
Disables output of warnings
.TP
\fB\-\-aggregate\-warnings\fR INT
Aggregate warnings of the same type
whenever more than INT occur
.TP
\fB\-l\fR, \fB\-\-log\fR FILE
Writes all messages to FILE (implies
verbose)
.TP
\fB\-\-message\-log\fR FILE
Writes all non\-error messages to FILE
(implies verbose)
.TP
\fB\-\-error\-log\fR FILE
Writes all warnings and errors to FILE
.TP
\fB\-\-ignore\-errors\fR
Continue on broken input
.TP
\fB\-\-ignore\-errors\fR.connections
Continue on invalid connections
.TP
\fB\-\-show\-errors\fR.connections\-first\-try
Show errors in connections at parsing
.TP
\fB\-\-ignore\-errors\fR.edge\-type
Continue on unknown edge types
.SS "Random Number Options:"
.TP
\fB\-\-random\fR
Initialises the random number generator
with the current system time
.TP
\fB\-\-seed\fR INT
Initialises the random number generator
with the given value
.SH EXAMPLES
.IP
netconvert \-c <CONFIGURATION>
.IP
generate net with options read from file
.IP
netconvert \-n ./nodes.xml \-e ./edges.xml \-v \-t ./owntypes.xml
.IP
generate net with given nodes, edges, and edge types doing verbose output
.SH "REPORTING BUGS"
Report bugs at <https://github.com/eclipse/sumo/issues>.
.br
Get in contact via <sumo@dlr.de>.
.IP
.br
Build features: Linux\-4.15.0\-117\-generic x86_64 GNU 7.5.0 Release Proj GUI SWIG
.br