.\" DO NOT MODIFY THIS FILE!  It was generated by help2man 1.47.6.
.TH ECLIPSE "1" "December 2020" "Eclipse SUMO od2trips Version 1.8.0" "User Commands"
.SH NAME
Eclipse \- Importer of O/D-matrices for the traffic simulation SUMO
.SH SYNOPSIS
.B od2trips
[\fI\,OPTION\/\fR]\fI\,*\/\fR
.SH DESCRIPTION
Eclipse SUMO od2trips Version 1.8.0
.IP
Copyright (C) 2001\-2020 German Aerospace Center (DLR) and others; https://sumo.dlr.de
.PP
Importer of O/D\-matrices for the microscopic, multi\-modal traffic simulation
.IP
SUMO.
.SS "Configuration Options:"
.TP
\fB\-c\fR, \fB\-\-configuration\-file\fR FILE
Loads the named config on startup
.TP
\fB\-C\fR, \fB\-\-save\-configuration\fR FILE
Saves current configuration into FILE
.TP
\fB\-\-save\-template\fR FILE
Saves a configuration template (empty) into
FILE
.TP
\fB\-\-save\-schema\fR FILE
Saves the configuration schema into FILE
.TP
\fB\-\-save\-commented\fR
Adds comments to saved template,
configuration, or schema
.SS "Input Options:"
.TP
\fB\-n\fR, \fB\-\-taz\-files\fR FILE
Loads TAZ (districts;
also from networks) from FILE(s)
.TP
\fB\-d\fR, \fB\-\-od\-matrix\-files\fR FILE
Loads O/D\-files from FILE(s)
.TP
\fB\-\-od\-amitran\-files\fR FILE
Loads O/D\-matrix in Amitran format from
FILE(s)
.SS "Output Options:"
.TP
\fB\-\-write\-license\fR
Include license info into every output file
.TP
\fB\-\-output\-prefix\fR STR
Prefix which is applied to all output files.
The special string 'TIME' is replaced by the
current time.
.TP
\fB\-\-precision\fR INT
Defines the number of digits after the comma
for floating point output
.TP
\fB\-\-precision\fR.geo INT
Defines the number of digits after the comma
for lon,lat output
.TP
\fB\-H\fR, \fB\-\-human\-readable\-time\fR
Write time values as hour:minute:second or
day:hour:minute:second rather than seconds
.TP
\fB\-o\fR, \fB\-\-output\-file\fR FILE
Writes trip definitions into FILE
.TP
\fB\-\-flow\-output\fR FILE
Writes flow definitions into FILE
.TP
\fB\-\-flow\-output\fR.probability
Writes probabilistic flow instead of evenly
spaced flow
.TP
\fB\-\-pedestrians\fR
Writes pedestrians instead of vehicles
.TP
\fB\-\-persontrips\fR
Writes persontrips instead of vehicles
.TP
\fB\-\-persontrips\fR.modes STR[]
Add modes attribute to personTrips
.TP
\fB\-\-ignore\-vehicle\-type\fR
Does not save vtype information
.SS "Time Options:"
.TP
\fB\-b\fR, \fB\-\-begin\fR TIME
Defines the begin time;
Previous trips will be discarded
.TP
\fB\-e\fR, \fB\-\-end\fR TIME
Defines the end time;
Later trips will be discarded;
Defaults to the maximum time that SUMO can
represent
.SS "Processing Options:"
.TP
\fB\-s\fR, \fB\-\-scale\fR FLOAT
Scales the loaded flows by FLOAT
.TP
\fB\-\-spread\fR.uniform
Spreads trips uniformly over each time
period
.TP
\fB\-\-different\-source\-sink\fR
Always choose source and sink edge which are
not identical
.TP
\fB\-\-vtype\fR STR
Defines the name of the vehicle type to use
.TP
\fB\-\-prefix\fR STR
Defines the prefix for vehicle names
.TP
\fB\-\-timeline\fR STR[]
Uses STR[] as a timeline definition
.TP
\fB\-\-timeline\fR.day\-in\-hours
Uses STR as a 24h\-timeline definition
.TP
\fB\-\-no\-step\-log\fR
Disable console output of current time step
.SS "Defaults Options:"
.TP
\fB\-\-departlane\fR STR
Assigns a default depart lane
.TP
\fB\-\-departpos\fR STR
Assigns a default depart position
.TP
\fB\-\-departspeed\fR STR
Assigns a default depart speed
.TP
\fB\-\-arrivallane\fR STR
Assigns a default arrival lane
.TP
\fB\-\-arrivalpos\fR STR
Assigns a default arrival position
.TP
\fB\-\-arrivalspeed\fR STR
Assigns a default arrival speed
.SS "Report Options:"
.TP
\fB\-v\fR, \fB\-\-verbose\fR
Switches to verbose output
.TP
\fB\-\-print\-options\fR
Prints option values before processing
.TP
\-?, \fB\-\-help\fR
Prints this screen or selected topics
.TP
\fB\-V\fR, \fB\-\-version\fR
Prints the current version
.TP
\fB\-X\fR, \fB\-\-xml\-validation\fR STR
Set schema validation scheme of XML inputs
("never", "auto" or "always")
.TP
\fB\-W\fR, \fB\-\-no\-warnings\fR
Disables output of warnings
.TP
\fB\-\-aggregate\-warnings\fR INT
Aggregate warnings of the same type whenever
more than INT occur
.TP
\fB\-l\fR, \fB\-\-log\fR FILE
Writes all messages to FILE (implies
verbose)
.TP
\fB\-\-message\-log\fR FILE
Writes all non\-error messages to FILE
(implies verbose)
.TP
\fB\-\-error\-log\fR FILE
Writes all warnings and errors to FILE
.TP
\fB\-\-ignore\-errors\fR
Continue on broken input
.SS "Random Number Options:"
.TP
\fB\-\-random\fR
Initialises the random number generator with
the current system time
.TP
\fB\-\-seed\fR INT
Initialises the random number generator with
the given value
.SH EXAMPLES
.IP
od2trips \-c <CONFIGURATION>
.IP
run with configuration file
.SH "REPORTING BUGS"
Report bugs at <https://github.com/eclipse/sumo/issues>.
.br
Get in contact via <sumo@dlr.de>.
.IP
.br
Build features: Linux\-4.15.0\-117\-generic x86_64 GNU 7.5.0 Release Proj GUI SWIG
.br
Copyright (C) 2001\-2020 German Aerospace Center (DLR) and others; https://sumo.dlr.de
.PP
.br
Eclipse SUMO od2trips Version 1.8.0 is part of SUMO.
.br
This program and the accompanying materials
are made available under the terms of the Eclipse Public License v2.0
which accompanies this distribution, and is available at
http://www.eclipse.org/legal/epl\-v20.html
.br
SPDX\-License\-Identifier: EPL\-2.0
