<?xml version="1.0" encoding="UTF-8"?>

<!-- generated on 03/16/21 14:36:42 by Eclipse SUMO netedit Version 1.8.0
<configuration xmlns:xsi="http://www.w3.org/2001/XMLSchema-instance" xsi:noNamespaceSchemaLocation="http://sumo.dlr.de/xsd/netconvertConfiguration.xsd">

    <input>
        <sumo-net-file value="C:\Users\jwj\Desktop\sumo-win64-1.8.0\sumo-1.8.0\file\highway\G0211.net.xml"/>
    </input>

    <output>
        <output-file value="C:\Users\jwj\Desktop\sumo-win64-1.8.0\sumo-1.8.0\file\highway\G0211.net.xml"/>
    </output>

    <processing>
        <geometry.min-radius.fix.railways value="false"/>
        <geometry.max-grade.fix value="false"/>
        <offset.disable-normalization value="true"/>
        <lefthand value="false"/>
    </processing>

    <junctions>
        <no-turnarounds value="true"/>
        <junctions.corner-detail value="5"/>
        <junctions.limit-turn-speed value="5.5"/>
        <rectangular-lane-cut value="false"/>
    </junctions>

    <pedestrian>
        <walkingareas value="false"/>
    </pedestrian>

    <report>
        <aggregate-warnings value="5"/>
    </report>

</configuration>
-->

<net version="1.6" junctionCornerDetail="5" limitTurnSpeed="5.50" xmlns:xsi="http://www.w3.org/2001/XMLSchema-instance" xsi:noNamespaceSchemaLocation="http://sumo.dlr.de/xsd/net_file.xsd">

    <location netOffset="-288876.02,-4225736.61" convBoundary="0.00,0.00,27118.69,16080.94" origBoundary="114.589084,38.156410,114.897430,38.302813" projParameter="+proj=utm +zone=50 +ellps=WGS84 +datum=WGS84 +units=m +no_defs"/>

    <type id="highway.bridleway" priority="1" numLanes="1" speed="2.78" allow="pedestrian" oneway="1" width="2.00"/>
    <type id="highway.bus_guideway" priority="1" numLanes="1" speed="27.78" allow="bus" oneway="1"/>
    <type id="highway.cycleway" priority="1" numLanes="1" speed="8.33" allow="bicycle" oneway="1" width="1.00"/>
    <type id="highway.footway" priority="1" numLanes="1" speed="2.78" allow="pedestrian" oneway="1" width="2.00"/>
    <type id="highway.ford" priority="1" numLanes="1" speed="2.78" allow="army" oneway="1"/>
    <type id="highway.living_street" priority="2" numLanes="1" speed="2.78" disallow="tram rail_urban rail rail_electric rail_fast ship" oneway="1"/>
    <type id="highway.motorway" priority="14" numLanes="2" speed="39.44" allow="private emergency authority army vip passenger hov taxi bus coach delivery truck trailer motorcycle evehicle custom1 custom2" oneway="1"/>
    <type id="highway.motorway_link" priority="9" numLanes="1" speed="22.22" allow="private emergency authority army vip passenger hov taxi bus coach delivery truck trailer motorcycle evehicle custom1 custom2" oneway="1"/>
    <type id="highway.path" priority="1" numLanes="1" speed="2.78" allow="pedestrian bicycle" oneway="1" width="2.00"/>
    <type id="highway.pedestrian" priority="1" numLanes="1" speed="2.78" allow="pedestrian" oneway="1" width="2.00"/>
    <type id="highway.primary" priority="12" numLanes="2" speed="27.78" disallow="tram rail_urban rail rail_electric rail_fast ship" oneway="1"/>
    <type id="highway.primary_link" priority="7" numLanes="1" speed="22.22" disallow="tram rail_urban rail rail_electric rail_fast ship" oneway="1"/>
    <type id="highway.raceway" priority="15" numLanes="2" speed="83.33" allow="vip" oneway="1"/>
    <type id="highway.residential" priority="3" numLanes="1" speed="13.89" disallow="tram rail_urban rail rail_electric rail_fast ship" oneway="1"/>
    <type id="highway.secondary" priority="11" numLanes="1" speed="27.78" disallow="tram rail_urban rail rail_electric rail_fast ship" oneway="1"/>
    <type id="highway.secondary_link" priority="6" numLanes="1" speed="22.22" disallow="tram rail_urban rail rail_electric rail_fast ship" oneway="1"/>
    <type id="highway.service" priority="1" numLanes="1" speed="5.56" allow="pedestrian delivery bicycle" oneway="1"/>
    <type id="highway.stairs" priority="1" numLanes="1" speed="1.39" allow="pedestrian" oneway="1" width="2.00"/>
    <type id="highway.step" priority="1" numLanes="1" speed="1.39" allow="pedestrian" oneway="1" width="2.00"/>
    <type id="highway.steps" priority="1" numLanes="1" speed="1.39" allow="pedestrian" oneway="1" width="2.00"/>
    <type id="highway.tertiary" priority="10" numLanes="1" speed="22.22" disallow="tram rail_urban rail rail_electric rail_fast ship" oneway="1"/>
    <type id="highway.tertiary_link" priority="5" numLanes="1" speed="22.22" disallow="tram rail_urban rail rail_electric rail_fast ship" oneway="1"/>
    <type id="highway.track" priority="1" numLanes="1" speed="5.56" allow="pedestrian motorcycle moped bicycle" oneway="1"/>
    <type id="highway.trunk" priority="13" numLanes="2" speed="27.78" disallow="pedestrian bicycle tram rail_urban rail rail_electric rail_fast ship" oneway="1"/>
    <type id="highway.trunk_link" priority="8" numLanes="1" speed="22.22" disallow="pedestrian bicycle tram rail_urban rail rail_electric rail_fast ship" oneway="1"/>
    <type id="highway.unclassified" priority="4" numLanes="1" speed="13.89" disallow="tram rail_urban rail rail_electric rail_fast ship" oneway="1"/>
    <type id="highway.unsurfaced" priority="1" numLanes="1" speed="8.33" disallow="tram rail_urban rail rail_electric rail_fast ship" oneway="1"/>
    <type id="railway.highspeed" priority="21" numLanes="1" speed="69.44" allow="rail_fast" oneway="1"/>
    <type id="railway.light_rail" priority="19" numLanes="1" speed="27.78" allow="rail_urban" oneway="1"/>
    <type id="railway.preserved" priority="16" numLanes="1" speed="27.78" allow="rail" oneway="1"/>
    <type id="railway.rail" priority="20" numLanes="1" speed="44.44" allow="rail" oneway="1"/>
    <type id="railway.subway" priority="18" numLanes="1" speed="27.78" allow="rail_urban" oneway="1"/>
    <type id="railway.tram" priority="17" numLanes="1" speed="13.89" allow="tram" oneway="1"/>

    <edge id=":1642405616_0" function="internal">
        <lane id=":1642405616_0_0" index="0" disallow="tram rail_urban rail rail_electric rail_fast ship" speed="3.65" length="4.67" shape="12692.47,466.70 12693.33,465.54 12694.15,465.18 12694.93,465.62 12695.67,466.86"/>
    </edge>
    <edge id=":1642405689_0" function="internal">
        <lane id=":1642405689_0_0" index="0" disallow="tram rail_urban rail rail_electric rail_fast ship" speed="6.53" length="9.08" shape="12467.98,4581.49 12467.36,4579.10 12466.10,4577.48 12464.23,4576.63 12461.73,4576.55"/>
    </edge>
    <edge id=":1642405689_1" function="internal">
        <lane id=":1642405689_1_0" index="0" disallow="tram rail_urban rail rail_electric rail_fast ship" speed="27.78" length="14.43" shape="12467.98,4581.49 12466.28,4567.18"/>
        <lane id=":1642405689_1_1" index="1" disallow="tram rail_urban rail rail_electric rail_fast ship" speed="27.78" length="14.43" shape="12471.16,4581.13 12469.46,4566.78"/>
    </edge>
    <edge id=":1642405689_3" function="internal">
        <lane id=":1642405689_3_0" index="0" disallow="tram rail_urban rail rail_electric rail_fast ship" speed="3.65" length="2.34" shape="12471.16,4581.13 12471.82,4579.84 12472.57,4579.36"/>
    </edge>
    <edge id=":1642405689_11" function="internal">
        <lane id=":1642405689_11_0" index="0" disallow="tram rail_urban rail rail_electric rail_fast ship" speed="3.65" length="2.34" shape="12472.57,4579.36 12473.41,4579.66 12474.34,4580.76"/>
    </edge>
    <edge id=":1642405689_4" function="internal">
        <lane id=":1642405689_4_0" index="0" disallow="tram rail_urban rail rail_electric rail_fast ship" speed="27.78" length="14.49" shape="12475.81,4566.00 12477.52,4580.40"/>
        <lane id=":1642405689_4_1" index="1" disallow="tram rail_urban rail rail_electric rail_fast ship" speed="27.78" length="14.49" shape="12472.64,4566.39 12474.34,4580.76"/>
    </edge>
    <edge id=":1642405689_6" function="internal">
        <lane id=":1642405689_6_0" index="0" disallow="tram rail_urban rail rail_electric rail_fast ship" speed="8.65" length="5.33" shape="12472.64,4566.39 12472.36,4570.34 12471.63,4571.50"/>
    </edge>
    <edge id=":1642405689_7" function="internal">
        <lane id=":1642405689_7_0" index="0" disallow="tram rail_urban rail rail_electric rail_fast ship" speed="3.65" length="2.34" shape="12472.64,4566.39 12471.99,4567.68 12471.24,4568.18"/>
    </edge>
    <edge id=":1642405689_12" function="internal">
        <lane id=":1642405689_12_0" index="0" disallow="tram rail_urban rail rail_electric rail_fast ship" speed="8.65" length="11.60" shape="12471.63,4571.50 12470.46,4573.35 12466.91,4575.42 12461.73,4576.55"/>
    </edge>
    <edge id=":1642405689_13" function="internal">
        <lane id=":1642405689_13_0" index="0" disallow="tram rail_urban rail rail_electric rail_fast ship" speed="3.65" length="2.34" shape="12471.24,4568.18 12470.40,4567.88 12469.46,4566.78"/>
    </edge>
    <edge id=":1642405689_8" function="internal">
        <lane id=":1642405689_8_0" index="0" disallow="tram rail_urban rail rail_electric rail_fast ship" speed="6.48" length="9.03" shape="12461.38,4573.37 12463.79,4572.75 12465.40,4571.51 12466.24,4569.66 12466.28,4567.18"/>
    </edge>
    <edge id=":1642405689_9" function="internal">
        <lane id=":1642405689_9_0" index="0" disallow="tram rail_urban rail rail_electric rail_fast ship" speed="8.69" length="16.88" shape="12461.38,4573.37 12466.68,4573.34 12470.61,4574.56 12473.16,4577.04 12474.34,4580.76"/>
    </edge>
    <edge id=":1642405689_10" function="internal">
        <lane id=":1642405689_10_0" index="0" disallow="tram rail_urban rail rail_electric rail_fast ship" speed="3.65" length="4.67" shape="12461.38,4573.37 12462.66,4574.03 12463.15,4574.78 12462.84,4575.62 12461.73,4576.55"/>
    </edge>
    <edge id=":5422004857_0" function="internal">
        <lane id=":5422004857_0_0" index="0" disallow="tram rail_urban rail rail_electric rail_fast ship" speed="27.78" length="36.48" shape="14628.97,4578.20 14621.88,4577.64 14610.74,4577.16 14599.60,4576.99 14592.53,4577.36"/>
    </edge>
    <edge id=":5422004857_1" function="internal">
        <lane id=":5422004857_1_0" index="0" disallow="tram rail_urban rail rail_electric rail_fast ship" speed="6.08" length="4.00" shape="14628.97,4578.20 14625.45,4576.30"/>
    </edge>
    <edge id=":5422004857_2" function="internal">
        <lane id=":5422004857_2_0" index="0" disallow="tram rail_urban rail rail_electric rail_fast ship" speed="3.66" length="2.51" shape="14628.97,4578.20 14627.76,4577.39 14627.35,4576.59 14627.42,4576.45"/>
    </edge>
    <edge id=":5422004857_9" function="internal">
        <lane id=":5422004857_9_0" index="0" disallow="tram rail_urban rail rail_electric rail_fast ship" speed="6.08" length="11.12" shape="14625.45,4576.30 14624.01,4572.86 14624.81,4569.38 14628.03,4567.32"/>
    </edge>
    <edge id=":5422004857_10" function="internal">
        <lane id=":5422004857_10_0" index="0" disallow="tram rail_urban rail rail_electric rail_fast ship" speed="3.66" length="2.21" shape="14627.42,4576.45 14627.75,4575.78 14628.96,4574.97"/>
    </edge>
    <edge id=":5422004857_3" function="internal">
        <lane id=":5422004857_3_0" index="0" disallow="tram rail_urban rail rail_electric rail_fast ship" speed="5.96" length="14.45" shape="14628.63,4570.46 14623.64,4571.70 14622.04,4572.86 14623.81,4573.95 14628.96,4574.97"/>
    </edge>
    <edge id=":5422004857_4" function="internal">
        <lane id=":5422004857_4_0" index="0" disallow="tram rail_urban rail rail_electric rail_fast ship" speed="20.84" length="36.75" shape="14628.63,4570.46 14592.53,4577.36"/>
    </edge>
    <edge id=":5422004857_5" function="internal">
        <lane id=":5422004857_5_0" index="0" disallow="tram rail_urban rail rail_electric rail_fast ship" speed="3.65" length="4.67" shape="14628.63,4570.46 14627.30,4569.90 14626.75,4569.19 14627.00,4568.33 14628.03,4567.32"/>
    </edge>
    <edge id=":5422004857_6" function="internal">
        <lane id=":5422004857_6_0" index="0" disallow="tram rail_urban rail rail_electric rail_fast ship" speed="20.84" length="36.75" shape="14591.93,4574.22 14628.03,4567.32"/>
    </edge>
    <edge id=":5422004857_7" function="internal">
        <lane id=":5422004857_7_0" index="0" disallow="tram rail_urban rail rail_electric rail_fast ship" speed="27.78" length="37.07" shape="14591.93,4574.22 14599.09,4573.84 14610.43,4573.97 14621.78,4574.42 14628.96,4574.97"/>
    </edge>
    <edge id=":5422004857_8" function="internal">
        <lane id=":5422004857_8_0" index="0" disallow="tram rail_urban rail rail_electric rail_fast ship" speed="3.65" length="2.55" shape="14591.93,4574.22 14593.26,4574.78 14593.80,4575.49 14593.74,4575.69"/>
    </edge>
    <edge id=":5422004857_11" function="internal">
        <lane id=":5422004857_11_0" index="0" disallow="tram rail_urban rail rail_electric rail_fast ship" speed="3.65" length="2.12" shape="14593.74,4575.69 14593.56,4576.35 14592.53,4577.36"/>
    </edge>
    <edge id=":5422004864_0" function="internal">
        <lane id=":5422004864_0_0" index="0" disallow="tram rail_urban rail rail_electric rail_fast ship" speed="20.84" length="20.60" shape="12558.87,4959.59 12538.81,4964.28"/>
    </edge>
    <edge id=":5422004864_1" function="internal">
        <lane id=":5422004864_1_0" index="0" disallow="tram rail_urban rail rail_electric rail_fast ship" speed="9.00" length="17.02" shape="12558.87,4959.59 12553.74,4960.09 12549.70,4959.23 12546.76,4957.01 12544.92,4953.41"/>
    </edge>
    <edge id=":5422004864_2" function="internal">
        <lane id=":5422004864_2_0" index="0" disallow="tram rail_urban rail rail_electric rail_fast ship" speed="3.65" length="4.67" shape="12558.87,4959.59 12557.54,4959.05 12556.98,4958.35 12557.21,4957.49 12558.22,4956.46"/>
    </edge>
    <edge id=":5422004864_3" function="internal">
        <lane id=":5422004864_3_0" index="0" disallow="tram rail_urban rail rail_electric rail_fast ship" speed="6.94" length="9.72" shape="12551.04,4951.55 12552.18,4954.12 12553.75,4955.79 12555.76,4956.57 12558.22,4956.46"/>
    </edge>
    <edge id=":5422004864_4" function="internal">
        <lane id=":5422004864_4_0" index="0" disallow="tram rail_urban rail rail_electric rail_fast ship" speed="8.60" length="17.09" shape="12547.98,4952.48 12548.40,4956.50 12547.02,4959.81 12543.82,4962.40 12538.81,4964.28"/>
    </edge>
    <edge id=":5422004864_5" function="internal">
        <lane id=":5422004864_5_0" index="0" disallow="tram rail_urban rail rail_electric rail_fast ship" speed="3.65" length="4.67" shape="12547.98,4952.48 12547.56,4953.86 12546.91,4954.48 12546.03,4954.33 12544.92,4953.41"/>
    </edge>
    <edge id=":5422004864_6" function="internal">
        <lane id=":5422004864_6_0" index="0" disallow="tram rail_urban rail rail_electric rail_fast ship" speed="6.42" length="9.04" shape="12538.01,4961.18 12540.31,4960.22 12541.72,4958.76 12542.23,4956.80 12541.86,4954.34"/>
    </edge>
    <edge id=":5422004864_7" function="internal">
        <lane id=":5422004864_7_0" index="0" disallow="tram rail_urban rail rail_electric rail_fast ship" speed="20.84" length="20.75" shape="12538.01,4961.18 12558.22,4956.46"/>
    </edge>
    <edge id=":5422004864_8" function="internal">
        <lane id=":5422004864_8_0" index="0" disallow="tram rail_urban rail rail_electric rail_fast ship" speed="3.65" length="4.67" shape="12538.01,4961.18 12539.37,4961.66 12539.96,4962.33 12539.77,4963.21 12538.81,4964.28"/>
    </edge>
    <edge id=":5425061839_0" function="internal">
        <lane id=":5425061839_0_0" index="0" disallow="tram rail_urban rail rail_electric rail_fast ship" speed="3.65" length="4.67" shape="16327.98,6406.15 16329.30,6406.74 16329.84,6407.45 16329.58,6408.31 16328.54,6409.31"/>
    </edge>
    <edge id=":5529279929_0" function="internal">
        <lane id=":5529279929_0_0" index="0" disallow="tram rail_urban rail rail_electric rail_fast ship" speed="3.65" length="4.67" shape="6894.78,-0.21 6895.74,-1.30 6896.58,-1.59 6897.32,-1.08 6897.96,0.21"/>
    </edge>
    <edge id=":5529279960_0" function="internal">
        <lane id=":5529279960_0_0" index="0" disallow="tram rail_urban rail rail_electric rail_fast ship" speed="27.78" length="14.43" shape="7076.55,4988.30 7062.16,4989.36"/>
    </edge>
    <edge id=":5529279960_1" function="internal">
        <lane id=":5529279960_1_0" index="0" disallow="tram rail_urban rail rail_electric rail_fast ship" speed="7.94" length="5.96" shape="7076.55,4988.30 7072.62,4988.04 7070.82,4987.12"/>
    </edge>
    <edge id=":5529279960_2" function="internal">
        <lane id=":5529279960_2_0" index="0" disallow="tram rail_urban rail rail_electric rail_fast ship" speed="3.65" length="2.34" shape="7076.55,4988.30 7075.29,4987.59 7074.83,4986.82"/>
    </edge>
    <edge id=":5529279960_9" function="internal">
        <lane id=":5529279960_9_0" index="0" disallow="tram rail_urban rail rail_electric rail_fast ship" speed="7.94" length="8.36" shape="7070.82,4987.12 7069.75,4986.57 7067.96,4983.90 7067.23,4980.02"/>
    </edge>
    <edge id=":5529279960_10" function="internal">
        <lane id=":5529279960_10_0" index="0" disallow="tram rail_urban rail rail_electric rail_fast ship" speed="3.65" length="2.34" shape="7074.83,4986.82 7075.17,4986.00 7076.31,4985.11"/>
    </edge>
    <edge id=":5529279960_3" function="internal">
        <lane id=":5529279960_3_0" index="0" disallow="tram rail_urban rail rail_electric rail_fast ship" speed="6.43" length="9.03" shape="7070.43,4979.89 7070.89,4982.33 7072.02,4984.02 7073.83,4984.94 7076.31,4985.11"/>
    </edge>
    <edge id=":5529279960_4" function="internal">
        <lane id=":5529279960_4_0" index="0" disallow="tram rail_urban rail rail_electric rail_fast ship" speed="8.10" length="14.25" shape="7070.43,4979.89 7070.05,4983.80 7068.55,4986.68 7065.92,4988.54 7062.16,4989.36"/>
    </edge>
    <edge id=":5529279960_5" function="internal">
        <lane id=":5529279960_5_0" index="0" disallow="tram rail_urban rail rail_electric rail_fast ship" speed="3.65" length="4.67" shape="7070.43,4979.89 7069.68,4981.12 7068.90,4981.55 7068.08,4981.19 7067.23,4980.02"/>
    </edge>
    <edge id=":5529279960_6" function="internal">
        <lane id=":5529279960_6_0" index="0" disallow="tram rail_urban rail rail_electric rail_fast ship" speed="6.63" length="9.19" shape="7061.93,4986.17 7064.34,4985.64 7066.03,4984.43 7066.99,4982.56 7067.23,4980.02"/>
    </edge>
    <edge id=":5529279960_7" function="internal">
        <lane id=":5529279960_7_0" index="0" disallow="tram rail_urban rail rail_electric rail_fast ship" speed="27.78" length="14.41" shape="7061.93,4986.17 7076.31,4985.11"/>
    </edge>
    <edge id=":5529279960_8" function="internal">
        <lane id=":5529279960_8_0" index="0" disallow="tram rail_urban rail rail_electric rail_fast ship" speed="3.65" length="2.34" shape="7061.93,4986.17 7063.19,4986.88 7063.64,4987.65"/>
    </edge>
    <edge id=":5529279960_11" function="internal">
        <lane id=":5529279960_11_0" index="0" disallow="tram rail_urban rail rail_electric rail_fast ship" speed="3.65" length="2.34" shape="7063.64,4987.65 7063.30,4988.48 7062.16,4989.36"/>
    </edge>
    <edge id=":5529280541_0" function="internal">
        <lane id=":5529280541_0_0" index="0" disallow="tram rail_urban rail rail_electric rail_fast ship" speed="3.65" length="4.67" shape="7038.88,10279.80 7038.03,10280.96 7037.21,10281.33 7036.43,10280.89 7035.68,10279.66"/>
    </edge>
    <edge id=":5532284724_0" function="internal">
        <lane id=":5532284724_0_0" index="0" disallow="tram rail_urban rail rail_electric rail_fast ship" speed="3.65" length="4.67" shape="9034.74,1393.36 9035.58,1392.19 9036.39,1391.81 9037.17,1392.23 9037.94,1393.46"/>
    </edge>
    <edge id=":5532284728_0" function="internal">
        <lane id=":5532284728_0_0" index="0" disallow="tram rail_urban rail rail_electric rail_fast ship" speed="6.83" length="9.41" shape="9019.25,2221.95 9016.64,2222.40 9014.75,2223.50 9013.56,2225.25 9013.09,2227.66"/>
    </edge>
    <edge id=":5532284728_1" function="internal">
        <lane id=":5532284728_1_0" index="0" disallow="tram rail_urban rail rail_electric rail_fast ship" speed="7.89" length="14.43" shape="9019.25,2221.95 9015.28,2221.55 9012.47,2219.96 9010.82,2217.19 9010.33,2213.23"/>
    </edge>
    <edge id=":5532284728_2" function="internal">
        <lane id=":5532284728_2_0" index="0" disallow="tram rail_urban rail rail_electric rail_fast ship" speed="3.65" length="4.67" shape="9019.25,2221.95 9018.02,2221.20 9017.59,2220.41 9017.95,2219.60 9019.12,2218.75"/>
    </edge>
    <edge id=":5532284728_3" function="internal">
        <lane id=":5532284728_3_0" index="0" disallow="tram rail_urban rail rail_electric rail_fast ship" speed="6.38" length="9.04" shape="9013.53,2213.29 9013.84,2215.77 9014.87,2217.50 9016.63,2218.50 9019.12,2218.75"/>
    </edge>
    <edge id=":5532284728_4" function="internal">
        <lane id=":5532284728_4_0" index="0" disallow="tram rail_urban rail rail_electric rail_fast ship" speed="13.89" length="14.38" shape="9013.53,2213.29 9013.09,2227.66"/>
    </edge>
    <edge id=":5532284728_5" function="internal">
        <lane id=":5532284728_5_0" index="0" disallow="tram rail_urban rail rail_electric rail_fast ship" speed="3.65" length="2.34" shape="9013.53,2213.29 9012.71,2214.47 9011.90,2214.86"/>
    </edge>
    <edge id=":5532284728_9" function="internal">
        <lane id=":5532284728_9_0" index="0" disallow="tram rail_urban rail rail_electric rail_fast ship" speed="3.65" length="2.34" shape="9011.90,2214.86 9011.11,2214.44 9010.33,2213.23"/>
    </edge>
    <edge id=":5532284728_6" function="internal">
        <lane id=":5532284728_6_0" index="0" disallow="tram rail_urban rail rail_electric rail_fast ship" speed="13.89" length="14.30" shape="9009.89,2227.52 9010.33,2213.23"/>
    </edge>
    <edge id=":5532284728_7" function="internal">
        <lane id=":5532284728_7_0" index="0" disallow="tram rail_urban rail rail_electric rail_fast ship" speed="8.27" length="5.68" shape="9009.89,2227.52 9010.61,2223.83 9011.66,2222.23"/>
    </edge>
    <edge id=":5532284728_8" function="internal">
        <lane id=":5532284728_8_0" index="0" disallow="tram rail_urban rail rail_electric rail_fast ship" speed="3.65" length="2.34" shape="9009.89,2227.52 9010.74,2226.36 9011.56,2225.99"/>
    </edge>
    <edge id=":5532284728_10" function="internal">
        <lane id=":5532284728_10_0" index="0" disallow="tram rail_urban rail rail_electric rail_fast ship" speed="8.27" length="8.58" shape="9011.66,2222.23 9012.38,2221.13 9015.22,2219.44 9019.12,2218.75"/>
    </edge>
    <edge id=":5532284728_11" function="internal">
        <lane id=":5532284728_11_0" index="0" disallow="tram rail_urban rail rail_electric rail_fast ship" speed="3.65" length="2.34" shape="9011.56,2225.99 9012.34,2226.43 9013.09,2227.66"/>
    </edge>
    <edge id=":5532284731_0" function="internal">
        <lane id=":5532284731_0_0" index="0" disallow="tram rail_urban rail rail_electric rail_fast ship" speed="13.89" length="14.52" shape="8695.52,2267.54 8696.55,2264.17 8696.39,2260.64 8695.72,2256.99 8695.20,2253.27"/>
    </edge>
    <edge id=":5532284731_1" function="internal">
        <lane id=":5532284731_1_0" index="0" disallow="tram rail_urban rail rail_electric rail_fast ship" speed="9.60" length="5.40" shape="8695.52,2267.54 8697.99,2263.63 8698.49,2263.04"/>
    </edge>
    <edge id=":5532284731_2" function="internal">
        <lane id=":5532284731_2_0" index="0" disallow="tram rail_urban rail rail_electric rail_fast ship" speed="3.85" length="3.47" shape="8695.52,2267.54 8696.42,2266.11 8697.34,2265.62 8698.01,2265.93"/>
    </edge>
    <edge id=":5532284731_9" function="internal">
        <lane id=":5532284731_9_0" index="0" disallow="tram rail_urban rail rail_electric rail_fast ship" speed="9.60" length="7.90" shape="8698.49,2263.04 8700.36,2260.86 8702.63,2259.23 8704.81,2258.73"/>
    </edge>
    <edge id=":5532284731_10" function="internal">
        <lane id=":5532284731_10_0" index="0" disallow="tram rail_urban rail rail_electric rail_fast ship" speed="3.85" length="1.98" shape="8698.01,2265.93 8698.28,2266.05 8699.26,2267.43"/>
    </edge>
    <edge id=":5532284731_3" function="internal">
        <lane id=":5532284731_3_0" index="0" disallow="tram rail_urban rail rail_electric rail_fast ship" speed="7.56" length="8.00" shape="8704.69,2261.93 8703.49,2262.24 8702.18,2263.26 8700.77,2264.99 8699.26,2267.43"/>
    </edge>
    <edge id=":5532284731_4" function="internal">
        <lane id=":5532284731_4_0" index="0" disallow="tram rail_urban rail rail_electric rail_fast ship" speed="8.34" length="14.35" shape="8704.69,2261.93 8700.73,2261.27 8697.83,2259.60 8695.98,2256.94 8695.20,2253.27"/>
    </edge>
    <edge id=":5532284731_5" function="internal">
        <lane id=":5532284731_5_0" index="0" disallow="tram rail_urban rail rail_electric rail_fast ship" speed="3.65" length="4.67" shape="8704.69,2261.93 8703.52,2261.09 8703.15,2260.28 8703.58,2259.49 8704.81,2258.73"/>
    </edge>
    <edge id=":5532284731_6" function="internal">
        <lane id=":5532284731_6_0" index="0" disallow="tram rail_urban rail rail_electric rail_fast ship" speed="6.91" length="9.56" shape="8698.39,2253.07 8698.92,2255.47 8700.16,2257.21 8702.13,2258.30 8704.81,2258.73"/>
    </edge>
    <edge id=":5532284731_7" function="internal">
        <lane id=":5532284731_7_0" index="0" disallow="tram rail_urban rail rail_electric rail_fast ship" speed="13.89" length="14.64" shape="8698.39,2253.07 8699.00,2256.81 8699.86,2260.49 8700.20,2264.05 8699.26,2267.43"/>
    </edge>
    <edge id=":5532284731_8" function="internal">
        <lane id=":5532284731_8_0" index="0" disallow="tram rail_urban rail rail_electric rail_fast ship" speed="3.65" length="2.20" shape="8698.39,2253.07 8697.66,2254.32 8697.01,2254.70"/>
    </edge>
    <edge id=":5532284731_11" function="internal">
        <lane id=":5532284731_11_0" index="0" disallow="tram rail_urban rail rail_electric rail_fast ship" speed="3.65" length="2.48" shape="8697.01,2254.70 8696.89,2254.77 8696.07,2254.42 8695.20,2253.27"/>
    </edge>
    <edge id=":5532284734_0" function="internal">
        <lane id=":5532284734_0_0" index="0" disallow="tram rail_urban rail rail_electric rail_fast ship" speed="3.65" length="4.67" shape="8701.19,1879.20 8702.02,1878.02 8702.83,1877.64 8703.62,1878.06 8704.39,1879.28"/>
    </edge>
    <edge id=":5532284750_0" function="internal">
        <lane id=":5532284750_0_0" index="0" disallow="tram rail_urban rail rail_electric rail_fast ship" speed="6.53" length="9.06" shape="8152.00,2245.59 8149.53,2245.86 8147.73,2246.85 8146.62,2248.57 8146.17,2251.00"/>
    </edge>
    <edge id=":5532284750_1" function="internal">
        <lane id=":5532284750_1_0" index="0" disallow="tram rail_urban rail rail_electric rail_fast ship" speed="13.89" length="14.46" shape="8152.00,2245.59 8137.56,2245.04"/>
    </edge>
    <edge id=":5532284750_2" function="internal">
        <lane id=":5532284750_2_0" index="0" disallow="tram rail_urban rail rail_electric rail_fast ship" speed="7.99" length="14.22" shape="8152.00,2245.59 8148.16,2244.92 8145.47,2243.17 8143.92,2240.36 8143.51,2236.48"/>
    </edge>
    <edge id=":5532284750_3" function="internal">
        <lane id=":5532284750_3_0" index="0" disallow="tram rail_urban rail rail_electric rail_fast ship" speed="3.65" length="4.67" shape="8152.00,2245.59 8150.83,2244.75 8150.45,2243.94 8150.88,2243.15 8152.10,2242.39"/>
    </edge>
    <edge id=":5532284750_4" function="internal">
        <lane id=":5532284750_4_0" index="0" disallow="tram rail_urban rail rail_electric rail_fast ship" speed="6.50" length="9.04" shape="8146.71,2236.60 8146.97,2239.07 8147.95,2240.85 8149.66,2241.96 8152.10,2242.39"/>
    </edge>
    <edge id=":5532284750_5" function="internal">
        <lane id=":5532284750_5_0" index="0" disallow="tram rail_urban rail rail_electric rail_fast ship" speed="13.89" length="14.41" shape="8146.71,2236.60 8146.17,2251.00"/>
    </edge>
    <edge id=":5532284750_6" function="internal">
        <lane id=":5532284750_6_0" index="0" disallow="tram rail_urban rail rail_electric rail_fast ship" speed="7.99" length="5.93" shape="8146.71,2236.60 8146.01,2240.44 8144.90,2242.14"/>
    </edge>
    <edge id=":5532284750_7" function="internal">
        <lane id=":5532284750_7_0" index="0" disallow="tram rail_urban rail rail_electric rail_fast ship" speed="3.65" length="2.34" shape="8146.71,2236.60 8145.86,2237.77 8145.05,2238.14"/>
    </edge>
    <edge id=":5532284750_16" function="internal">
        <lane id=":5532284750_16_0" index="0" disallow="tram rail_urban rail rail_electric rail_fast ship" speed="7.99" length="8.29" shape="8144.90,2242.14 8144.25,2243.13 8141.44,2244.66 8137.56,2245.04"/>
    </edge>
    <edge id=":5532284750_17" function="internal">
        <lane id=":5532284750_17_0" index="0" disallow="tram rail_urban rail rail_electric rail_fast ship" speed="3.65" length="2.34" shape="8145.05,2238.14 8144.26,2237.71 8143.51,2236.48"/>
    </edge>
    <edge id=":5532284750_8" function="internal">
        <lane id=":5532284750_8_0" index="0" disallow="tram rail_urban rail rail_electric rail_fast ship" speed="6.49" length="9.03" shape="8137.70,2241.85 8140.16,2241.60 8141.95,2240.63 8143.07,2238.92 8143.51,2236.48"/>
    </edge>
    <edge id=":5532284750_9" function="internal">
        <lane id=":5532284750_9_0" index="0" disallow="tram rail_urban rail rail_electric rail_fast ship" speed="13.89" length="14.42" shape="8137.70,2241.85 8152.10,2242.39"/>
    </edge>
    <edge id=":5532284750_10" function="internal">
        <lane id=":5532284750_10_0" index="0" disallow="tram rail_urban rail rail_electric rail_fast ship" speed="8.03" length="14.21" shape="8137.70,2241.85 8141.53,2242.56 8144.22,2244.33 8145.77,2247.14 8146.17,2251.00"/>
    </edge>